/*---------------------------------------------------------------------------*\
| =========                 |                                                 |
| \\      /  F ield         | OpenFOAM: The Open Source CFD Toolbox           |
|  \\    /   O peration     | Version:  2406                                  |
|   \\  /    A nd           | Website:  www.openfoam.com                      |
|    \\/     M anipulation  |                                                 |
\*---------------------------------------------------------------------------*/
Build  : _630d60de3b-20240620 OPENFOAM=2406 version=v2406
Arch   : "LSB;label=32;scalar=64"
Exec   : RK4Foam
Date   : Sep 06 2024
Time   : 11:31:47
Host   : hakan-X556UQK
PID    : 34523
I/O    : uncollated
Case   : /home/hakan/courses/testSimulation/tgv2dTests/tgv2d_temporal/RK4Foam/RK4Foam_nu0.0000001/TGV_temporal
nProcs : 1
trapFpe: Floating point exception trapping enabled (FOAM_SIGFPE).
fileModificationChecking : Monitoring run-time modified files using timeStampMaster (fileModificationSkew 5, maxFileModificationPolls 20)
allowSystemOperations : Allowing user-supplied system call operations

// * * * * * * * * * * * * * * * * * * * * * * * * * * * * * * * * * * * * * //
Create time

Create mesh for time = 0


PIMPLE: Operating solver in PISO mode

Reading field p

Using #codeStream at line 19 in file "0/p"
Using #codeStream with "/home/hakan/courses/testSimulation/tgv2dTests/tgv2d_temporal/RK4Foam/RK4Foam_nu0.0000001/TGV_temporal/dynamicCode/platforms/linux64GccDPInt32Opt/lib/libcodeStream_537564b8bd232f4ddf4797bc6f60eef024868c2e.so"
Creating new library in "dynamicCode/_537564b8bd232f4ddf4797bc6f60eef024868c2e/platforms/linux64GccDPInt32Opt/lib/libcodeStream_537564b8bd232f4ddf4797bc6f60eef024868c2e.so"
Invoking wmake libso /home/hakan/courses/testSimulation/tgv2dTests/tgv2d_temporal/RK4Foam/RK4Foam_nu0.0000001/TGV_temporal/dynamicCode/_537564b8bd232f4ddf4797bc6f60eef024868c2e
wmake libso /home/hakan/courses/testSimulation/tgv2dTests/tgv2d_temporal/RK4Foam/RK4Foam_nu0.0000001/TGV_temporal/dynamicCode/_537564b8bd232f4ddf4797bc6f60eef024868c2e
    dep: codeStreamTemplate.C
    Ctoo: codeStreamTemplate.C
    link: /home/hakan/courses/testSimulation/tgv2dTests/tgv2d_temporal/RK4Foam/RK4Foam_nu0.0000001/TGV_temporal/dynamicCode/_537564b8bd232f4ddf4797bc6f60eef024868c2e/../platforms/linux64GccDPInt32Opt/lib/libcodeStream_537564b8bd232f4ddf4797bc6f60eef024868c2e.so
Reading field U

Using #codeStream at line 19 in file "0/U"
Using #codeStream with "/home/hakan/courses/testSimulation/tgv2dTests/tgv2d_temporal/RK4Foam/RK4Foam_nu0.0000001/TGV_temporal/dynamicCode/platforms/linux64GccDPInt32Opt/lib/libcodeStream_18dd48bdf5aea29696d9cbfe8eb27bc690b7dc03.so"
Creating new library in "dynamicCode/_18dd48bdf5aea29696d9cbfe8eb27bc690b7dc03/platforms/linux64GccDPInt32Opt/lib/libcodeStream_18dd48bdf5aea29696d9cbfe8eb27bc690b7dc03.so"
Invoking wmake libso /home/hakan/courses/testSimulation/tgv2dTests/tgv2d_temporal/RK4Foam/RK4Foam_nu0.0000001/TGV_temporal/dynamicCode/_18dd48bdf5aea29696d9cbfe8eb27bc690b7dc03
wmake libso /home/hakan/courses/testSimulation/tgv2dTests/tgv2d_temporal/RK4Foam/RK4Foam_nu0.0000001/TGV_temporal/dynamicCode/_18dd48bdf5aea29696d9cbfe8eb27bc690b7dc03
    dep: codeStreamTemplate.C
    Ctoo: codeStreamTemplate.C
    link: /home/hakan/courses/testSimulation/tgv2dTests/tgv2d_temporal/RK4Foam/RK4Foam_nu0.0000001/TGV_temporal/dynamicCode/_18dd48bdf5aea29696d9cbfe8eb27bc690b7dc03/../platforms/linux64GccDPInt32Opt/lib/libcodeStream_18dd48bdf5aea29696d9cbfe8eb27bc690b7dc03.so
Reading/calculating face flux field phi

Selecting incompressible transport model Newtonian
Selecting turbulence model type laminar
Selecting laminar stress model Stokes
Reading explicit source from transportProperties


 delPx = 0
 delPy = 0
 delPz = 0
No MRF models present

No finite volume options present
Courant Number mean: 0.123796159305 max: 0.152696725009
Courant Number mean: 0.123796159305 max: 0.152696725009

Starting time loop


Define RK4 coeff.

 b1 = 0.166666666667
 b2 = 0.333333333333
 b3 = 0.333333333333
 b4 = 0.166666666667
Using dynamicCode for functionObject diff at line 51 in "/home/hakan/courses/testSimulation/tgv2dTests/tgv2d_temporal/RK4Foam/RK4Foam_nu0.0000001/TGV_temporal/system/controlDict/functions/diff"
Creating new library in "dynamicCode/diff/platforms/linux64GccDPInt32Opt/lib/libdiff_d924c92ec3fe0b16fec6b8892a9fc1c20fa93dd8.so"
Invoking wmake libso /home/hakan/courses/testSimulation/tgv2dTests/tgv2d_temporal/RK4Foam/RK4Foam_nu0.0000001/TGV_temporal/dynamicCode/diff
wmake libso /home/hakan/courses/testSimulation/tgv2dTests/tgv2d_temporal/RK4Foam/RK4Foam_nu0.0000001/TGV_temporal/dynamicCode/diff
    dep: functionObjectTemplate.C
    Ctoo: functionObjectTemplate.C
    link: /home/hakan/courses/testSimulation/tgv2dTests/tgv2d_temporal/RK4Foam/RK4Foam_nu0.0000001/TGV_temporal/dynamicCode/diff/../platforms/linux64GccDPInt32Opt/lib/libdiff_d924c92ec3fe0b16fec6b8892a9fc1c20fa93dd8.so
Courant Number mean: 0.123796159305 max: 0.152696725009
Time = 0.0075

time step continuity errors : sum local = 3.98713633785e-14, global = 5.5903346747e-20, cumulative = 5.5903346747e-20
DICPCG:  Solving for p, Initial residual = 0.334136523658, Final residual = 0.00314616825517, No Iterations 35
time step continuity errors : sum local = 1.6018026533e-07, global = -3.15896092046e-20, cumulative = 2.43137375424e-20
DICPCG:  Solving for p, Initial residual = 0.00473359655105, Final residual = 4.22217608755e-05, No Iterations 82
time step continuity errors : sum local = 5.51634840577e-08, global = 7.39035294756e-20, cumulative = 9.82172670179e-20
DICPCG:  Solving for p, Initial residual = 0.333338476514, Final residual = 0.0031673419494, No Iterations 35
time step continuity errors : sum local = 1.8176022276e-07, global = -4.9932533932e-21, cumulative = 9.32240136247e-20
DICPCG:  Solving for p, Initial residual = 0.00237468581734, Final residual = 2.09046825772e-05, No Iterations 82
ExecutionTime = 0.33 s  ClockTime = 26 s

    Reading error_velocity_mag (volScalarField)
    Reading error_velocity_mag_squ (volScalarField)
    Reading error_pres (volScalarField)
volFieldValue error_velocity_norm write:
    max(region0) of error_velocity_mag = 1.28058351453e-05

volFieldValue L2_error_velocity_norm write:
    sqrt(sum(region0)) of error_velocity_mag_squ = 0.00115386794345

volFieldValue error_pressure_norm write:
    max(region0) of error_pres = 0.000906849293466

Courant Number mean: 0.123796152831 max: 0.15269674794
Time = 0.015

time step continuity errors : sum local = 1.09554914334e-07, global = 2.78869098627e-21, cumulative = 9.6012704611e-20
DICPCG:  Solving for p, Initial residual = 0.331198910589, Final residual = 0.00312148911372, No Iterations 35
time step continuity errors : sum local = 1.5911060217e-07, global = -8.23347738048e-20, cumulative = 1.36779308062e-20
DICPCG:  Solving for p, Initial residual = 0.00467588882916, Final residual = 4.17348378332e-05, No Iterations 82
time step continuity errors : sum local = 5.55036508773e-08, global = -6.49106849419e-20, cumulative = -5.12327541357e-20
DICPCG:  Solving for p, Initial residual = 0.332271292858, Final residual = 0.00315663830991, No Iterations 35
time step continuity errors : sum local = 1.81932653525e-07, global = 1.11748785656e-19, cumulative = 6.05160315203e-20
DICPCG:  Solving for p, Initial residual = 0.00236861096968, Final residual = 2.08610437048e-05, No Iterations 82
ExecutionTime = 0.59 s  ClockTime = 26 s

volFieldValue error_velocity_norm write:
    max(region0) of error_velocity_mag = 1.28058351453e-05

volFieldValue L2_error_velocity_norm write:
    sqrt(sum(region0)) of error_velocity_mag_squ = 0.00115386794345

volFieldValue error_pressure_norm write:
    max(region0) of error_pres = 0.000906849293466

Courant Number mean: 0.123796144198 max: 0.152696757739
Time = 0.0225

time step continuity errors : sum local = 1.09898813477e-07, global = 4.47831910837e-20, cumulative = 1.05299222604e-19
DICPCG:  Solving for p, Initial residual = 0.332263154444, Final residual = 0.00313348514647, No Iterations 35
time step continuity errors : sum local = 1.59775536549e-07, global = 5.13912462107e-20, cumulative = 1.56690468815e-19
DICPCG:  Solving for p, Initial residual = 0.00470153845715, Final residual = 4.19452383459e-05, No Iterations 82
time step continuity errors : sum local = 5.55634663114e-08, global = -3.66922861333e-20, cumulative = 1.19998182681e-19
DICPCG:  Solving for p, Initial residual = 0.332268391494, Final residual = 0.00315672456858, No Iterations 35
time step continuity errors : sum local = 1.81964068695e-07, global = -5.76082731152e-20, cumulative = 6.23899095662e-20
DICPCG:  Solving for p, Initial residual = 0.00236872312672, Final residual = 2.08603555638e-05, No Iterations 82
ExecutionTime = 0.84 s  ClockTime = 26 s

volFieldValue error_velocity_norm write:
    max(region0) of error_velocity_mag = 1.28058351453e-05

volFieldValue L2_error_velocity_norm write:
    sqrt(sum(region0)) of error_velocity_mag_squ = 0.00115386794345

volFieldValue error_pressure_norm write:
    max(region0) of error_pres = 0.000906849293466

Courant Number mean: 0.123796135498 max: 0.152696769229
Time = 0.03

time step continuity errors : sum local = 1.09959895803e-07, global = 5.10203326087e-20, cumulative = 1.13410242175e-19
DICPCG:  Solving for p, Initial residual = 0.332265557301, Final residual = 0.0031342376155, No Iterations 35
time step continuity errors : sum local = 1.59768725501e-07, global = -2.8216789639e-21, cumulative = 1.10588563211e-19
DICPCG:  Solving for p, Initial residual = 0.00470284644734, Final residual = 4.19582071856e-05, No Iterations 82
time step continuity errors : sum local = 5.56068562436e-08, global = 1.89680871325e-20, cumulative = 1.29556650343e-19
DICPCG:  Solving for p, Initial residual = 0.332268104345, Final residual = 0.00315668362317, No Iterations 35
time step continuity errors : sum local = 1.81986968899e-07, global = 1.60997422491e-20, cumulative = 1.45656392593e-19
DICPCG:  Solving for p, Initial residual = 0.00236870545547, Final residual = 2.08748947716e-05, No Iterations 82
ExecutionTime = 1.08 s  ClockTime = 27 s

volFieldValue error_velocity_norm write:
    max(region0) of error_velocity_mag = 1.28058351453e-05

volFieldValue L2_error_velocity_norm write:
    sqrt(sum(region0)) of error_velocity_mag_squ = 0.00115386794345

volFieldValue error_pressure_norm write:
    max(region0) of error_pres = 0.000906849293466

Courant Number mean: 0.123796126798 max: 0.152696780588
Time = 0.0375

time step continuity errors : sum local = 1.10003116907e-07, global = 2.87816081826e-20, cumulative = 1.74438000775e-19
DICPCG:  Solving for p, Initial residual = 0.332265420862, Final residual = 0.00313458442042, No Iterations 35
time step continuity errors : sum local = 1.59761079643e-07, global = 6.97655497461e-20, cumulative = 2.44203550521e-19
DICPCG:  Solving for p, Initial residual = 0.00470344266781, Final residual = 4.19495676089e-05, No Iterations 82
time step continuity errors : sum local = 5.56399322437e-08, global = -3.18092608605e-20, cumulative = 2.12394289661e-19
DICPCG:  Solving for p, Initial residual = 0.332267902411, Final residual = 0.00315666792211, No Iterations 35
time step continuity errors : sum local = 1.82004505025e-07, global = -2.59784346696e-20, cumulative = 1.86415854991e-19
DICPCG:  Solving for p, Initial residual = 0.00236869804983, Final residual = 2.08657950847e-05, No Iterations 82
ExecutionTime = 1.32 s  ClockTime = 27 s

volFieldValue error_velocity_norm write:
    max(region0) of error_velocity_mag = 1.28058351453e-05

volFieldValue L2_error_velocity_norm write:
    sqrt(sum(region0)) of error_velocity_mag_squ = 0.00115386794345

volFieldValue error_pressure_norm write:
    max(region0) of error_pres = 0.000906849293466

Courant Number mean: 0.1237961181 max: 0.152696791822
Time = 0.045

time step continuity errors : sum local = 1.10036427652e-07, global = -1.20864731667e-20, cumulative = 1.74329381824e-19
DICPCG:  Solving for p, Initial residual = 0.332265296625, Final residual = 0.00313473209914, No Iterations 35
time step continuity errors : sum local = 1.59753962082e-07, global = -5.63048457067e-21, cumulative = 1.68698897254e-19
DICPCG:  Solving for p, Initial residual = 0.00470370126197, Final residual = 4.19515141559e-05, No Iterations 82
time step continuity errors : sum local = 5.56667349912e-08, global = -8.03707822591e-20, cumulative = 8.83281149948e-20
DICPCG:  Solving for p, Initial residual = 0.332267743977, Final residual = 0.0031566568963, No Iterations 35
time step continuity errors : sum local = 1.82016970732e-07, global = 9.57986961834e-20, cumulative = 1.84126811178e-19
DICPCG:  Solving for p, Initial residual = 0.00236869135967, Final residual = 2.08600599963e-05, No Iterations 82
ExecutionTime = 1.57 s  ClockTime = 27 s

volFieldValue error_velocity_norm write:
    max(region0) of error_velocity_mag = 1.28058351453e-05

volFieldValue L2_error_velocity_norm write:
    sqrt(sum(region0)) of error_velocity_mag_squ = 0.00115386794345

volFieldValue error_pressure_norm write:
    max(region0) of error_pres = 0.000906849293466

Courant Number mean: 0.123796109405 max: 0.152696802939
Time = 0.0525

time step continuity errors : sum local = 1.10063123789e-07, global = 1.92456688955e-20, cumulative = 2.03372480074e-19
DICPCG:  Solving for p, Initial residual = 0.332265184719, Final residual = 0.00313474715289, No Iterations 35
time step continuity errors : sum local = 1.59744796024e-07, global = 8.21529376355e-20, cumulative = 2.85525417709e-19
DICPCG:  Solving for p, Initial residual = 0.0047037463695, Final residual = 4.19604572319e-05, No Iterations 82
time step continuity errors : sum local = 5.56874789455e-08, global = 1.43626436226e-20, cumulative = 2.99888061332e-19
DICPCG:  Solving for p, Initial residual = 0.33226761721, Final residual = 0.00315664941729, No Iterations 35
time step continuity errors : sum local = 1.82027068252e-07, global = 2.20938991584e-21, cumulative = 3.02097451248e-19
DICPCG:  Solving for p, Initial residual = 0.00236868653841, Final residual = 2.0874185945e-05, No Iterations 82
ExecutionTime = 1.82 s  ClockTime = 27 s

volFieldValue error_velocity_norm write:
    max(region0) of error_velocity_mag = 1.28058351453e-05

volFieldValue L2_error_velocity_norm write:
    sqrt(sum(region0)) of error_velocity_mag_squ = 0.00115386794345

volFieldValue error_pressure_norm write:
    max(region0) of error_pres = 0.000906849293466

Courant Number mean: 0.123796100714 max: 0.152696813923
Time = 0.06

time step continuity errors : sum local = 1.10083072962e-07, global = -2.83728790941e-20, cumulative = 2.73724572154e-19
DICPCG:  Solving for p, Initial residual = 0.332265089403, Final residual = 0.00313479459923, No Iterations 35
time step continuity errors : sum local = 1.59740349037e-07, global = 2.86037949374e-20, cumulative = 3.02328367091e-19
DICPCG:  Solving for p, Initial residual = 0.00470383108786, Final residual = 3.77161123529e-05, No Iterations 82
time step continuity errors : sum local = 5.57078996697e-08, global = 7.95251636132e-21, cumulative = 3.10280883452e-19
DICPCG:  Solving for p, Initial residual = 0.332267797414, Final residual = 0.00315921630801, No Iterations 35
time step continuity errors : sum local = 1.82039308846e-07, global = -5.25796179899e-20, cumulative = 2.57701265462e-19
DICPCG:  Solving for p, Initial residual = 0.0023706672231, Final residual = 1.79796399286e-05, No Iterations 82
ExecutionTime = 2.06 s  ClockTime = 28 s

volFieldValue error_velocity_norm write:
    max(region0) of error_velocity_mag = 1.28058351453e-05

volFieldValue L2_error_velocity_norm write:
    sqrt(sum(region0)) of error_velocity_mag_squ = 0.00115386794345

volFieldValue error_pressure_norm write:
    max(region0) of error_pres = 0.000906849293466

Courant Number mean: 0.123796092024 max: 0.152696825168
Time = 0.0675

time step continuity errors : sum local = 1.10093721406e-07, global = -4.65050025986e-20, cumulative = 2.11196262864e-19
DICPCG:  Solving for p, Initial residual = 0.332264870518, Final residual = 0.00313508823487, No Iterations 35
time step continuity errors : sum local = 1.59746774232e-07, global = -2.60637206605e-20, cumulative = 1.85132542203e-19
DICPCG:  Solving for p, Initial residual = 0.00470445781245, Final residual = 4.13315068627e-05, No Iterations 82
time step continuity errors : sum local = 5.5713254937e-08, global = -6.22105061431e-21, cumulative = 1.78911491589e-19
DICPCG:  Solving for p, Initial residual = 0.33226745809, Final residual = 0.00315676236894, No Iterations 35
time step continuity errors : sum local = 1.82032391605e-07, global = -6.84218930966e-20, cumulative = 1.10489598492e-19
DICPCG:  Solving for p, Initial residual = 0.00236876831333, Final residual = 2.0564081416e-05, No Iterations 82
ExecutionTime = 2.31 s  ClockTime = 28 s

volFieldValue error_velocity_norm write:
    max(region0) of error_velocity_mag = 1.28058351453e-05

volFieldValue L2_error_velocity_norm write:
    sqrt(sum(region0)) of error_velocity_mag_squ = 0.00115386794345

volFieldValue error_pressure_norm write:
    max(region0) of error_pres = 0.000906849293466

Courant Number mean: 0.123796083345 max: 0.152696835462
Time = 0.075

time step continuity errors : sum local = 1.10104960904e-07, global = 6.11935030733e-20, cumulative = 1.71683101566e-19
DICPCG:  Solving for p, Initial residual = 0.332264969228, Final residual = 0.00313462469253, No Iterations 35
time step continuity errors : sum local = 1.59725508796e-07, global = 1.87500446463e-20, cumulative = 1.90433146212e-19
DICPCG:  Solving for p, Initial residual = 0.0047035760093, Final residual = 4.19553088084e-05, No Iterations 82
time step continuity errors : sum local = 5.57246938161e-08, global = -8.84262854774e-20, cumulative = 1.02006860735e-19
DICPCG:  Solving for p, Initial residual = 0.332267385911, Final residual = 0.00315663777988, No Iterations 35
time step continuity errors : sum local = 1.82040140182e-07, global = -1.78585646657e-20, cumulative = 8.41482960689e-20
DICPCG:  Solving for p, Initial residual = 0.00236868031143, Final residual = 2.08777840708e-05, No Iterations 82
ExecutionTime = 2.56 s  ClockTime = 28 s

volFieldValue error_velocity_norm write:
    max(region0) of error_velocity_mag = 1.28058351453e-05

volFieldValue L2_error_velocity_norm write:
    sqrt(sum(region0)) of error_velocity_mag_squ = 0.00115386794345

volFieldValue error_pressure_norm write:
    max(region0) of error_pres = 0.000906849293466

Courant Number mean: 0.12379607467 max: 0.15269684583
Time = 0.0825

time step continuity errors : sum local = 1.10116265906e-07, global = 1.85746451555e-20, cumulative = 1.02722941224e-19
DICPCG:  Solving for p, Initial residual = 0.332264921729, Final residual = 0.00313483357132, No Iterations 35
time step continuity errors : sum local = 1.59730636611e-07, global = 6.71474307416e-20, cumulative = 1.69870371966e-19
DICPCG:  Solving for p, Initial residual = 0.00470390482636, Final residual = 4.19476102055e-05, No Iterations 82
time step continuity errors : sum local = 5.57328403134e-08, global = -4.07103827246e-20, cumulative = 1.29159989241e-19
DICPCG:  Solving for p, Initial residual = 0.332267335585, Final residual = 0.00315665020486, No Iterations 35
time step continuity errors : sum local = 1.82044431369e-07, global = 4.9301739433e-20, cumulative = 1.78461728675e-19
DICPCG:  Solving for p, Initial residual = 0.00236868840218, Final residual = 2.08771754425e-05, No Iterations 82
ExecutionTime = 2.8 s  ClockTime = 28 s

volFieldValue error_velocity_norm write:
    max(region0) of error_velocity_mag = 1.28058351453e-05

volFieldValue L2_error_velocity_norm write:
    sqrt(sum(region0)) of error_velocity_mag_squ = 0.00115386794345

volFieldValue error_pressure_norm write:
    max(region0) of error_pres = 0.000906849293466

Courant Number mean: 0.123796066 max: 0.152696856924
Time = 0.09

time step continuity errors : sum local = 1.10124501933e-07, global = -6.42509253895e-20, cumulative = 1.14210803285e-19
DICPCG:  Solving for p, Initial residual = 0.332264882291, Final residual = 0.00313481552262, No Iterations 35
time step continuity errors : sum local = 1.59729100519e-07, global = -5.44848748438e-20, cumulative = 5.97259284413e-20
DICPCG:  Solving for p, Initial residual = 0.00470388195372, Final residual = 4.02635402296e-05, No Iterations 82
time step continuity errors : sum local = 5.57381101651e-08, global = 1.29095634376e-20, cumulative = 7.26354918789e-20
DICPCG:  Solving for p, Initial residual = 0.332267328991, Final residual = 0.0031569195966, No Iterations 35
time step continuity errors : sum local = 1.82047093297e-07, global = 2.51529306442e-20, cumulative = 9.77884225231e-20
DICPCG:  Solving for p, Initial residual = 0.00236889855801, Final residual = 2.08725544394e-05, No Iterations 82
ExecutionTime = 3.05 s  ClockTime = 29 s

volFieldValue error_velocity_norm write:
    max(region0) of error_velocity_mag = 1.28058351453e-05

volFieldValue L2_error_velocity_norm write:
    sqrt(sum(region0)) of error_velocity_mag_squ = 0.00115386794345

volFieldValue error_pressure_norm write:
    max(region0) of error_pres = 0.000906849293466

Courant Number mean: 0.123796057338 max: 0.152696869088
Time = 0.0975

time step continuity errors : sum local = 1.101303418e-07, global = -4.31160913365e-20, cumulative = 5.46723311866e-20
DICPCG:  Solving for p, Initial residual = 0.332264863157, Final residual = 0.00313479175738, No Iterations 35
time step continuity errors : sum local = 1.59728742837e-07, global = -1.14111046688e-19, cumulative = -5.94387155011e-20
DICPCG:  Solving for p, Initial residual = 0.00470384809352, Final residual = 4.19476590895e-05, No Iterations 82
time step continuity errors : sum local = 5.5744368602e-08, global = -6.87244169889e-20, cumulative = -1.2816313249e-19
DICPCG:  Solving for p, Initial residual = 0.332267271866, Final residual = 0.00315664053932, No Iterations 35
time step continuity errors : sum local = 1.82049095236e-07, global = -2.17913752661e-20, cumulative = -1.49954507756e-19
DICPCG:  Solving for p, Initial residual = 0.00236867986266, Final residual = 2.08652387588e-05, No Iterations 82
ExecutionTime = 3.31 s  ClockTime = 29 s

volFieldValue error_velocity_norm write:
    max(region0) of error_velocity_mag = 1.28058351453e-05

volFieldValue L2_error_velocity_norm write:
    sqrt(sum(region0)) of error_velocity_mag_squ = 0.00115386794345

volFieldValue error_pressure_norm write:
    max(region0) of error_pres = 0.000906849293466

Courant Number mean: 0.123796048691 max: 0.152696881219
Time = 0.105

time step continuity errors : sum local = 1.10134267223e-07, global = 3.92830492539e-20, cumulative = -1.10671458502e-19
DICPCG:  Solving for p, Initial residual = 0.332264852196, Final residual = 0.00313479408654, No Iterations 35
time step continuity errors : sum local = 1.59726022657e-07, global = 4.66208628127e-20, cumulative = -6.40505956896e-20
DICPCG:  Solving for p, Initial residual = 0.00470385074849, Final residual = 4.19627552033e-05, No Iterations 82
time step continuity errors : sum local = 5.57486307844e-08, global = -4.04142955108e-20, cumulative = -1.044648912e-19
DICPCG:  Solving for p, Initial residual = 0.332267254942, Final residual = 0.00315663332989, No Iterations 35
time step continuity errors : sum local = 1.82051074513e-07, global = -1.89576275299e-20, cumulative = -1.2342251873e-19
DICPCG:  Solving for p, Initial residual = 0.00236867349979, Final residual = 2.05159009754e-05, No Iterations 82
ExecutionTime = 3.57 s  ClockTime = 29 s

volFieldValue error_velocity_norm write:
    max(region0) of error_velocity_mag = 1.28058351453e-05

volFieldValue L2_error_velocity_norm write:
    sqrt(sum(region0)) of error_velocity_mag_squ = 0.00115386794345

volFieldValue error_pressure_norm write:
    max(region0) of error_pres = 0.000906849293466

Courant Number mean: 0.123796040054 max: 0.152696893164
Time = 0.1125

time step continuity errors : sum local = 1.10136481541e-07, global = 1.36763327711e-20, cumulative = -1.09746185959e-19
DICPCG:  Solving for p, Initial residual = 0.332264821568, Final residual = 0.00313473649267, No Iterations 35
time step continuity errors : sum local = 1.59721735197e-07, global = 7.26218258572e-21, cumulative = -1.02484003373e-19
DICPCG:  Solving for p, Initial residual = 0.00470376422214, Final residual = 4.19416325688e-05, No Iterations 82
time step continuity errors : sum local = 5.57514712151e-08, global = 2.21864264127e-20, cumulative = -8.02975769607e-20
DICPCG:  Solving for p, Initial residual = 0.332267246072, Final residual = 0.00315663290076, No Iterations 35
time step continuity errors : sum local = 1.82053922263e-07, global = 1.32402477987e-20, cumulative = -6.70573291621e-20
DICPCG:  Solving for p, Initial residual = 0.00236867215323, Final residual = 2.08777574515e-05, No Iterations 82
ExecutionTime = 3.82 s  ClockTime = 29 s

volFieldValue error_velocity_norm write:
    max(region0) of error_velocity_mag = 1.28058351453e-05

volFieldValue L2_error_velocity_norm write:
    sqrt(sum(region0)) of error_velocity_mag_squ = 0.00115386794345

volFieldValue error_pressure_norm write:
    max(region0) of error_pres = 0.000906849293466

Courant Number mean: 0.123796031428 max: 0.152696904821
Time = 0.12

time step continuity errors : sum local = 1.10138669276e-07, global = -2.01371488761e-20, cumulative = -8.71944780382e-20
DICPCG:  Solving for p, Initial residual = 0.332264853517, Final residual = 0.00313485448251, No Iterations 35
time step continuity errors : sum local = 1.59726295713e-07, global = -5.56338219668e-20, cumulative = -1.42828300005e-19
DICPCG:  Solving for p, Initial residual = 0.00470393912468, Final residual = 3.64165583642e-05, No Iterations 82
time step continuity errors : sum local = 5.57545475406e-08, global = -2.23940092963e-20, cumulative = -1.65222309301e-19
DICPCG:  Solving for p, Initial residual = 0.332267483212, Final residual = 0.00315871174267, No Iterations 35
time step continuity errors : sum local = 1.8205654647e-07, global = 4.66337361698e-21, cumulative = -1.60558935684e-19
DICPCG:  Solving for p, Initial residual = 0.00237027364997, Final residual = 2.08608958528e-05, No Iterations 82
ExecutionTime = 4.07 s  ClockTime = 30 s

volFieldValue error_velocity_norm write:
    max(region0) of error_velocity_mag = 1.28058351453e-05

volFieldValue L2_error_velocity_norm write:
    sqrt(sum(region0)) of error_velocity_mag_squ = 0.00115386794345

volFieldValue error_pressure_norm write:
    max(region0) of error_pres = 0.000906849293466

Courant Number mean: 0.12379602281 max: 0.152696916058
Time = 0.1275

time step continuity errors : sum local = 1.10140743449e-07, global = -1.48043606888e-22, cumulative = -1.60706979291e-19
DICPCG:  Solving for p, Initial residual = 0.33226484924, Final residual = 0.00313468591054, No Iterations 35
time step continuity errors : sum local = 1.59729360553e-07, global = 9.10693466112e-20, cumulative = -6.963763268e-20
DICPCG:  Solving for p, Initial residual = 0.00470369488001, Final residual = 4.19487920924e-05, No Iterations 82
time step continuity errors : sum local = 5.57560547815e-08, global = 8.38948637709e-20, cumulative = 1.42572310909e-20
DICPCG:  Solving for p, Initial residual = 0.332267241326, Final residual = 0.00315663348, No Iterations 35
time step continuity errors : sum local = 1.8205391889e-07, global = 3.7941001774e-20, cumulative = 5.21982328649e-20
DICPCG:  Solving for p, Initial residual = 0.00236867522522, Final residual = 2.08546623375e-05, No Iterations 82
ExecutionTime = 4.32 s  ClockTime = 30 s

volFieldValue error_velocity_norm write:
    max(region0) of error_velocity_mag = 1.28058351453e-05

volFieldValue L2_error_velocity_norm write:
    sqrt(sum(region0)) of error_velocity_mag_squ = 0.00115386794345

volFieldValue error_pressure_norm write:
    max(region0) of error_pres = 0.000906849293466

Courant Number mean: 0.123796014203 max: 0.152696927503
Time = 0.135

time step continuity errors : sum local = 1.10141481409e-07, global = -6.43458663982e-20, cumulative = -1.21476335333e-20
DICPCG:  Solving for p, Initial residual = 0.332264852465, Final residual = 0.00313484842543, No Iterations 35
time step continuity errors : sum local = 1.59726479328e-07, global = 2.1514598088e-20, cumulative = 9.36696455467e-21
DICPCG:  Solving for p, Initial residual = 0.00470393144208, Final residual = 4.194959258e-05, No Iterations 82
time step continuity errors : sum local = 5.57568040221e-08, global = -9.32304614378e-20, cumulative = -8.38634968832e-20
DICPCG:  Solving for p, Initial residual = 0.332267240794, Final residual = 0.00315663888961, No Iterations 35
time step continuity errors : sum local = 1.82053180789e-07, global = -4.29954036135e-20, cumulative = -1.26858900497e-19
DICPCG:  Solving for p, Initial residual = 0.00236867690301, Final residual = 2.08777494926e-05, No Iterations 82
ExecutionTime = 4.57 s  ClockTime = 30 s

volFieldValue error_velocity_norm write:
    max(region0) of error_velocity_mag = 1.28058351453e-05

volFieldValue L2_error_velocity_norm write:
    sqrt(sum(region0)) of error_velocity_mag_squ = 0.00115386794345

volFieldValue error_pressure_norm write:
    max(region0) of error_pres = 0.000906849293466

Courant Number mean: 0.123796005605 max: 0.152696938455
Time = 0.1425

time step continuity errors : sum local = 1.10141983836e-07, global = -5.70933388304e-21, cumulative = -1.3256823438e-19
DICPCG:  Solving for p, Initial residual = 0.332264858316, Final residual = 0.00313479690807, No Iterations 35
time step continuity errors : sum local = 1.59724083606e-07, global = -1.31026637944e-20, cumulative = -1.45670898174e-19
DICPCG:  Solving for p, Initial residual = 0.00470385314191, Final residual = 4.19493656566e-05, No Iterations 82
time step continuity errors : sum local = 5.57571998008e-08, global = 1.34558765304e-20, cumulative = -1.32215021644e-19
DICPCG:  Solving for p, Initial residual = 0.332267241305, Final residual = 0.0031566374886, No Iterations 35
time step continuity errors : sum local = 1.82053697821e-07, global = -6.99666959511e-21, cumulative = -1.39211691239e-19
DICPCG:  Solving for p, Initial residual = 0.00236867562291, Final residual = 2.08687332485e-05, No Iterations 82
ExecutionTime = 4.81 s  ClockTime = 30 s

volFieldValue error_velocity_norm write:
    max(region0) of error_velocity_mag = 1.28058351453e-05

volFieldValue L2_error_velocity_norm write:
    sqrt(sum(region0)) of error_velocity_mag_squ = 0.00115386794345

volFieldValue error_pressure_norm write:
    max(region0) of error_pres = 0.000906849293466

Courant Number mean: 0.123795997018 max: 0.152696977585
Time = 0.15

time step continuity errors : sum local = 1.10142119238e-07, global = -7.05524337001e-20, cumulative = -2.09764124939e-19
DICPCG:  Solving for p, Initial residual = 0.332264861944, Final residual = 0.00313481995848, No Iterations 35
time step continuity errors : sum local = 1.5972482588e-07, global = 2.92579223961e-20, cumulative = -1.80506202543e-19
DICPCG:  Solving for p, Initial residual = 0.00470388716524, Final residual = 4.19015383373e-05, No Iterations 82
time step continuity errors : sum local = 5.57572489323e-08, global = -4.85647397379e-20, cumulative = -2.29070942281e-19
DICPCG:  Solving for p, Initial residual = 0.332267245844, Final residual = 0.00315666522954, No Iterations 35
time step continuity errors : sum local = 1.82053864888e-07, global = -1.6592148159e-20, cumulative = -2.4566309044e-19
DICPCG:  Solving for p, Initial residual = 0.00236869716883, Final residual = 2.08684514072e-05, No Iterations 82
ExecutionTime = 5.06 s  ClockTime = 31 s

volFieldValue error_velocity_norm write:
    max(region0) of error_velocity_mag = 1.28058351453e-05

volFieldValue L2_error_velocity_norm write:
    sqrt(sum(region0)) of error_velocity_mag_squ = 0.00115386794345

volFieldValue error_pressure_norm write:
    max(region0) of error_pres = 0.000906849293466

Courant Number mean: 0.12379598844 max: 0.152697062529
Time = 0.1575

time step continuity errors : sum local = 1.10142042216e-07, global = -6.25291138746e-20, cumulative = -3.08192204314e-19
DICPCG:  Solving for p, Initial residual = 0.332264865309, Final residual = 0.00313481017222, No Iterations 35
time step continuity errors : sum local = 1.59724348146e-07, global = -6.22941751071e-20, cumulative = -3.70486379421e-19
DICPCG:  Solving for p, Initial residual = 0.00470387250888, Final residual = 4.19591038062e-05, No Iterations 82
time step continuity errors : sum local = 5.57572599278e-08, global = 2.38028373162e-20, cumulative = -3.46683542105e-19
DICPCG:  Solving for p, Initial residual = 0.332267246185, Final residual = 0.00315664283038, No Iterations 35
time step continuity errors : sum local = 1.8205413219e-07, global = 1.22425626218e-20, cumulative = -3.34440979483e-19
DICPCG:  Solving for p, Initial residual = 0.00236867939597, Final residual = 2.08771660844e-05, No Iterations 82
ExecutionTime = 5.3 s  ClockTime = 31 s

volFieldValue error_velocity_norm write:
    max(region0) of error_velocity_mag = 1.28058351453e-05

volFieldValue L2_error_velocity_norm write:
    sqrt(sum(region0)) of error_velocity_mag_squ = 0.00115386794345

volFieldValue error_pressure_norm write:
    max(region0) of error_pres = 0.000906849293466

Courant Number mean: 0.123795979874 max: 0.152697152139
Time = 0.165

time step continuity errors : sum local = 1.10141865302e-07, global = 4.45579073341e-20, cumulative = -2.89883072149e-19
DICPCG:  Solving for p, Initial residual = 0.332264867463, Final residual = 0.00313480226661, No Iterations 35
time step continuity errors : sum local = 1.59723201304e-07, global = 1.05810949684e-20, cumulative = -2.79301977181e-19
DICPCG:  Solving for p, Initial residual = 0.00470386044912, Final residual = 3.76198502814e-05, No Iterations 82
time step continuity errors : sum local = 5.57559341036e-08, global = -7.44723709433e-20, cumulative = -3.53774348124e-19
DICPCG:  Solving for p, Initial residual = 0.332267349412, Final residual = 0.00315747787885, No Iterations 35
time step continuity errors : sum local = 1.82053586895e-07, global = -1.17067091316e-20, cumulative = -3.65481057256e-19
DICPCG:  Solving for p, Initial residual = 0.00236933525265, Final residual = 2.08533311757e-05, No Iterations 82
ExecutionTime = 5.56 s  ClockTime = 31 s

volFieldValue error_velocity_norm write:
    max(region0) of error_velocity_mag = 1.28058351453e-05

volFieldValue L2_error_velocity_norm write:
    sqrt(sum(region0)) of error_velocity_mag_squ = 0.00115386794345

volFieldValue error_pressure_norm write:
    max(region0) of error_pres = 0.000906849293466

Courant Number mean: 0.123795971318 max: 0.152697245412
Time = 0.1725

time step continuity errors : sum local = 1.1014197961e-07, global = -2.09739170889e-20, cumulative = -3.86454974345e-19
DICPCG:  Solving for p, Initial residual = 0.332264866904, Final residual = 0.003134772764, No Iterations 35
time step continuity errors : sum local = 1.59726661091e-07, global = 2.02079523402e-20, cumulative = -3.66247022005e-19
DICPCG:  Solving for p, Initial residual = 0.00470381944772, Final residual = 4.1949422399e-05, No Iterations 82
time step continuity errors : sum local = 5.57571856218e-08, global = -7.97343556664e-22, cumulative = -3.67044365561e-19
DICPCG:  Solving for p, Initial residual = 0.332267253105, Final residual = 0.00315664562824, No Iterations 35
time step continuity errors : sum local = 1.82054174729e-07, global = 4.07216469121e-20, cumulative = -3.26322718649e-19
DICPCG:  Solving for p, Initial residual = 0.00236868233755, Final residual = 2.08447893026e-05, No Iterations 82
ExecutionTime = 5.79 s  ClockTime = 31 s

volFieldValue error_velocity_norm write:
    max(region0) of error_velocity_mag = 1.28058351453e-05

volFieldValue L2_error_velocity_norm write:
    sqrt(sum(region0)) of error_velocity_mag_squ = 0.00115386794345

volFieldValue error_pressure_norm write:
    max(region0) of error_pres = 0.000906849293466

Courant Number mean: 0.123795962771 max: 0.152697341249
Time = 0.18

time step continuity errors : sum local = 1.10141690859e-07, global = -3.69658449721e-20, cumulative = -3.63288563621e-19
DICPCG:  Solving for p, Initial residual = 0.332264866905, Final residual = 0.00313481674895, No Iterations 35
time step continuity errors : sum local = 1.59724270775e-07, global = -6.78265003298e-21, cumulative = -3.70071213654e-19
DICPCG:  Solving for p, Initial residual = 0.00470388118291, Final residual = 4.19623836162e-05, No Iterations 82
time step continuity errors : sum local = 5.57568022623e-08, global = 5.17171030628e-20, cumulative = -3.18354110591e-19
DICPCG:  Solving for p, Initial residual = 0.332267255961, Final residual = 0.00315664657095, No Iterations 35
time step continuity errors : sum local = 1.82053719724e-07, global = -2.42324856101e-20, cumulative = -3.42586596202e-19
DICPCG:  Solving for p, Initial residual = 0.00236868207272, Final residual = 2.08605192674e-05, No Iterations 82
ExecutionTime = 6.04 s  ClockTime = 32 s

volFieldValue error_velocity_norm write:
    max(region0) of error_velocity_mag = 1.28058351453e-05

volFieldValue L2_error_velocity_norm write:
    sqrt(sum(region0)) of error_velocity_mag_squ = 0.00115386794345

volFieldValue error_pressure_norm write:
    max(region0) of error_pres = 0.000906849293466

Courant Number mean: 0.123795954233 max: 0.15269743854
Time = 0.1875

time step continuity errors : sum local = 1.10141573029e-07, global = -2.90068919322e-20, cumulative = -3.71593488134e-19
DICPCG:  Solving for p, Initial residual = 0.332264872037, Final residual = 0.00313479820892, No Iterations 35
time step continuity errors : sum local = 1.59723037406e-07, global = -1.16745257388e-20, cumulative = -3.83268013873e-19
DICPCG:  Solving for p, Initial residual = 0.00470385310355, Final residual = 4.19453880169e-05, No Iterations 82
time step continuity errors : sum local = 5.57564304685e-08, global = -1.07677586467e-20, cumulative = -3.94035772519e-19
DICPCG:  Solving for p, Initial residual = 0.332267258646, Final residual = 0.00315664824214, No Iterations 35
time step continuity errors : sum local = 1.82053917587e-07, global = 5.55324442795e-21, cumulative = -3.88482528091e-19
DICPCG:  Solving for p, Initial residual = 0.00236868349667, Final residual = 2.08778849255e-05, No Iterations 82
ExecutionTime = 6.28 s  ClockTime = 32 s

volFieldValue error_velocity_norm write:
    max(region0) of error_velocity_mag = 1.28058351453e-05

volFieldValue L2_error_velocity_norm write:
    sqrt(sum(region0)) of error_velocity_mag_squ = 0.00115386794345

volFieldValue error_pressure_norm write:
    max(region0) of error_pres = 0.000906849293466

Courant Number mean: 0.123795945708 max: 0.15269753614
Time = 0.195

time step continuity errors : sum local = 1.10141475818e-07, global = -8.22768436978e-20, cumulative = -4.70759371789e-19
DICPCG:  Solving for p, Initial residual = 0.332264873179, Final residual = 0.00313479119496, No Iterations 35
time step continuity errors : sum local = 1.59721690347e-07, global = -3.82024918405e-20, cumulative = -5.0896186363e-19
DICPCG:  Solving for p, Initial residual = 0.00470384278319, Final residual = 4.19498047089e-05, No Iterations 82
time step continuity errors : sum local = 5.5756048881e-08, global = 7.27940070087e-20, cumulative = -4.36167856621e-19
DICPCG:  Solving for p, Initial residual = 0.332267261262, Final residual = 0.00315665360262, No Iterations 35
time step continuity errors : sum local = 1.82054756756e-07, global = -3.4230256584e-20, cumulative = -4.70398113205e-19
DICPCG:  Solving for p, Initial residual = 0.00236868768891, Final residual = 2.08777973632e-05, No Iterations 82
ExecutionTime = 6.53 s  ClockTime = 32 s

volFieldValue error_velocity_norm write:
    max(region0) of error_velocity_mag = 1.28058351453e-05

volFieldValue L2_error_velocity_norm write:
    sqrt(sum(region0)) of error_velocity_mag_squ = 0.00115386794345

volFieldValue error_pressure_norm write:
    max(region0) of error_pres = 0.000906849293466

Courant Number mean: 0.123795937191 max: 0.152697632895
Time = 0.2025

time step continuity errors : sum local = 1.10141356332e-07, global = 1.02008481825e-19, cumulative = -3.6838963138e-19
DICPCG:  Solving for p, Initial residual = 0.332264873467, Final residual = 0.00313480540515, No Iterations 35
time step continuity errors : sum local = 1.59721687673e-07, global = -3.16885731375e-20, cumulative = -4.00078204518e-19
DICPCG:  Solving for p, Initial residual = 0.0047038639917, Final residual = 4.19482841953e-05, No Iterations 82
time step continuity errors : sum local = 5.57557115887e-08, global = 5.17508956253e-20, cumulative = -3.48327308893e-19
DICPCG:  Solving for p, Initial residual = 0.332267262871, Final residual = 0.00315664877278, No Iterations 35
time step continuity errors : sum local = 1.82055300889e-07, global = -1.35524267088e-20, cumulative = -3.61879735601e-19
DICPCG:  Solving for p, Initial residual = 0.0023686838418, Final residual = 2.08686855786e-05, No Iterations 82
ExecutionTime = 6.78 s  ClockTime = 32 s

volFieldValue error_velocity_norm write:
    max(region0) of error_velocity_mag = 1.28058351453e-05

volFieldValue L2_error_velocity_norm write:
    sqrt(sum(region0)) of error_velocity_mag_squ = 0.00115386794345

volFieldValue error_pressure_norm write:
    max(region0) of error_pres = 0.000906849293466

Courant Number mean: 0.123795928681 max: 0.152697727656
Time = 0.21

time step continuity errors : sum local = 1.10141213544e-07, global = 1.71794950776e-20, cumulative = -3.44700240524e-19
DICPCG:  Solving for p, Initial residual = 0.332264874142, Final residual = 0.00313481692403, No Iterations 35
time step continuity errors : sum local = 1.59722262105e-07, global = -3.92798309146e-21, cumulative = -3.48628223615e-19
DICPCG:  Solving for p, Initial residual = 0.00470388099877, Final residual = 4.19318626869e-05, No Iterations 82
time step continuity errors : sum local = 5.57553411142e-08, global = -4.91038115673e-21, cumulative = -3.53538604772e-19
DICPCG:  Solving for p, Initial residual = 0.332267265912, Final residual = 0.00315666005476, No Iterations 35
time step continuity errors : sum local = 1.82055127749e-07, global = -2.9003673593e-20, cumulative = -3.82542278365e-19
DICPCG:  Solving for p, Initial residual = 0.00236869265425, Final residual = 1.81313859313e-05, No Iterations 82
ExecutionTime = 7.03 s  ClockTime = 33 s

volFieldValue error_velocity_norm write:
    max(region0) of error_velocity_mag = 1.28058351453e-05

volFieldValue L2_error_velocity_norm write:
    sqrt(sum(region0)) of error_velocity_mag_squ = 0.00115386794345

volFieldValue error_pressure_norm write:
    max(region0) of error_pres = 0.000906849293466

Courant Number mean: 0.123795920175 max: 0.152697819281
Time = 0.2175

time step continuity errors : sum local = 1.10135718849e-07, global = -2.21421742476e-21, cumulative = -3.8475649579e-19
DICPCG:  Solving for p, Initial residual = 0.332264784268, Final residual = 0.00313526899494, No Iterations 35
time step continuity errors : sum local = 1.59718243224e-07, global = -1.84362565665e-20, cumulative = -4.03192752356e-19
DICPCG:  Solving for p, Initial residual = 0.00470487597751, Final residual = 4.18779390226e-05, No Iterations 82
time step continuity errors : sum local = 5.57496684281e-08, global = -1.30978362855e-20, cumulative = -4.16290588642e-19
DICPCG:  Solving for p, Initial residual = 0.332267273908, Final residual = 0.00315667972716, No Iterations 35
time step continuity errors : sum local = 1.82057209373e-07, global = 3.98398219493e-20, cumulative = -3.76450766692e-19
DICPCG:  Solving for p, Initial residual = 0.00236870347461, Final residual = 2.08577661685e-05, No Iterations 82
ExecutionTime = 7.27 s  ClockTime = 33 s

volFieldValue error_velocity_norm write:
    max(region0) of error_velocity_mag = 1.28058351453e-05

volFieldValue L2_error_velocity_norm write:
    sqrt(sum(region0)) of error_velocity_mag_squ = 0.00115386794345

volFieldValue error_pressure_norm write:
    max(region0) of error_pres = 0.000906849293466

Courant Number mean: 0.123795911681 max: 0.152697906961
Time = 0.225

time step continuity errors : sum local = 1.10133455567e-07, global = -3.63511421696e-20, cumulative = -4.12801908862e-19
DICPCG:  Solving for p, Initial residual = 0.332264938137, Final residual = 0.00313492449163, No Iterations 35
time step continuity errors : sum local = 1.59722288866e-07, global = 4.73288974543e-20, cumulative = -3.65473011408e-19
DICPCG:  Solving for p, Initial residual = 0.00470402493382, Final residual = 4.1950244947e-05, No Iterations 82
time step continuity errors : sum local = 5.57515564593e-08, global = -2.89730993698e-20, cumulative = -3.94446110777e-19
DICPCG:  Solving for p, Initial residual = 0.332267285155, Final residual = 0.00315667344347, No Iterations 35
time step continuity errors : sum local = 1.82054634232e-07, global = -1.02439739288e-20, cumulative = -4.04690084706e-19
DICPCG:  Solving for p, Initial residual = 0.00236870445165, Final residual = 2.08762536188e-05, No Iterations 82
ExecutionTime = 7.52 s  ClockTime = 33 s

volFieldValue error_velocity_norm write:
    max(region0) of error_velocity_mag = 1.28058351453e-05

volFieldValue L2_error_velocity_norm write:
    sqrt(sum(region0)) of error_velocity_mag_squ = 0.00115386794345

volFieldValue error_pressure_norm write:
    max(region0) of error_pres = 0.000906849293466

Courant Number mean: 0.123795903198 max: 0.152697988962
Time = 0.2325

time step continuity errors : sum local = 1.1013558611e-07, global = 6.58005557529e-20, cumulative = -3.38889528953e-19
DICPCG:  Solving for p, Initial residual = 0.332264892542, Final residual = 0.00313480632257, No Iterations 35
time step continuity errors : sum local = 1.59719927426e-07, global = 2.11847183118e-20, cumulative = -3.17704810642e-19
DICPCG:  Solving for p, Initial residual = 0.00470386415231, Final residual = 4.1966598509e-05, No Iterations 82
time step continuity errors : sum local = 5.57524369554e-08, global = 6.53282644635e-20, cumulative = -2.52376546178e-19
DICPCG:  Solving for p, Initial residual = 0.332267277729, Final residual = 0.00315665362401, No Iterations 35
time step continuity errors : sum local = 1.82054890418e-07, global = 1.55831987946e-20, cumulative = -2.36793347383e-19
DICPCG:  Solving for p, Initial residual = 0.00236868844754, Final residual = 2.08659239582e-05, No Iterations 82
ExecutionTime = 7.77 s  ClockTime = 33 s

volFieldValue error_velocity_norm write:
    max(region0) of error_velocity_mag = 1.28058351453e-05

volFieldValue L2_error_velocity_norm write:
    sqrt(sum(region0)) of error_velocity_mag_squ = 0.00115386794345

volFieldValue error_pressure_norm write:
    max(region0) of error_pres = 0.000906849293466

Courant Number mean: 0.123795894722 max: 0.152698064995
Time = 0.24

time step continuity errors : sum local = 1.10137135083e-07, global = 1.98957734301e-20, cumulative = -2.16897573953e-19
DICPCG:  Solving for p, Initial residual = 0.332264880661, Final residual = 0.00313479032982, No Iterations 35
time step continuity errors : sum local = 1.59719695729e-07, global = -3.97931560298e-20, cumulative = -2.56690729983e-19
DICPCG:  Solving for p, Initial residual = 0.00470384396295, Final residual = 4.02784995753e-05, No Iterations 82
time step continuity errors : sum local = 5.57521004015e-08, global = 3.02121599927e-20, cumulative = -2.26478569991e-19
DICPCG:  Solving for p, Initial residual = 0.332267305622, Final residual = 0.00315693123148, No Iterations 35
time step continuity errors : sum local = 1.82054956484e-07, global = 6.38518513187e-20, cumulative = -1.62626718672e-19
DICPCG:  Solving for p, Initial residual = 0.00236890482421, Final residual = 2.08748788534e-05, No Iterations 82
ExecutionTime = 8.02 s  ClockTime = 34 s

volFieldValue error_velocity_norm write:
    max(region0) of error_velocity_mag = 1.28058351453e-05

volFieldValue L2_error_velocity_norm write:
    sqrt(sum(region0)) of error_velocity_mag_squ = 0.00115386794345

volFieldValue error_pressure_norm write:
    max(region0) of error_pres = 0.000906849293466

Courant Number mean: 0.123795886251 max: 0.152698134172
Time = 0.2475

time step continuity errors : sum local = 1.1013817394e-07, global = -8.48708251576e-20, cumulative = -2.47497543829e-19
DICPCG:  Solving for p, Initial residual = 0.332264877541, Final residual = 0.00313478515306, No Iterations 35
time step continuity errors : sum local = 1.59721484277e-07, global = 4.09775048849e-20, cumulative = -2.06520038944e-19
DICPCG:  Solving for p, Initial residual = 0.00470383722834, Final residual = 3.98740781106e-05, No Iterations 82
time step continuity errors : sum local = 5.57524174768e-08, global = -7.07519707354e-20, cumulative = -2.7727200968e-19
DICPCG:  Solving for p, Initial residual = 0.332267316237, Final residual = 0.00315702646223, No Iterations 35
time step continuity errors : sum local = 1.82054830436e-07, global = 4.62829371882e-20, cumulative = -2.30989072492e-19
DICPCG:  Solving for p, Initial residual = 0.00236898215415, Final residual = 2.08755229076e-05, No Iterations 82
ExecutionTime = 8.26 s  ClockTime = 34 s

volFieldValue error_velocity_norm write:
    max(region0) of error_velocity_mag = 1.28058351453e-05

volFieldValue L2_error_velocity_norm write:
    sqrt(sum(region0)) of error_velocity_mag_squ = 0.00115386794345

volFieldValue error_pressure_norm write:
    max(region0) of error_pres = 0.000906849293466

Courant Number mean: 0.123795877784 max: 0.152698195734
Time = 0.255

time step continuity errors : sum local = 1.10138792404e-07, global = 3.55658673852e-20, cumulative = -1.95423205106e-19
DICPCG:  Solving for p, Initial residual = 0.332264876305, Final residual = 0.00313478219361, No Iterations 35
time step continuity errors : sum local = 1.59722498491e-07, global = 7.47483435366e-20, cumulative = -1.2067486157e-19
DICPCG:  Solving for p, Initial residual = 0.00470383306568, Final residual = 4.19506533606e-05, No Iterations 82
time step continuity errors : sum local = 5.57541465005e-08, global = 5.37913227289e-20, cumulative = -6.68835388409e-20
DICPCG:  Solving for p, Initial residual = 0.332267272925, Final residual = 0.00315664322385, No Iterations 35
time step continuity errors : sum local = 1.82055003069e-07, global = 4.50921516546e-20, cumulative = -2.17913871864e-20
DICPCG:  Solving for p, Initial residual = 0.00236868026582, Final residual = 2.08767349182e-05, No Iterations 82
ExecutionTime = 8.5 s  ClockTime = 34 s

volFieldValue error_velocity_norm write:
    max(region0) of error_velocity_mag = 1.28058351453e-05

volFieldValue L2_error_velocity_norm write:
    sqrt(sum(region0)) of error_velocity_mag_squ = 0.00115386794345

volFieldValue error_pressure_norm write:
    max(region0) of error_pres = 0.000906849293466

Courant Number mean: 0.123795869322 max: 0.152698249069
Time = 0.2625

time step continuity errors : sum local = 1.10138984074e-07, global = 2.32879030314e-20, cumulative = 1.496515845e-21
DICPCG:  Solving for p, Initial residual = 0.332264875767, Final residual = 0.00313480408808, No Iterations 35
time step continuity errors : sum local = 1.59721764756e-07, global = -4.09622177733e-20, cumulative = -3.94657019283e-20
DICPCG:  Solving for p, Initial residual = 0.00470386413795, Final residual = 4.19512339583e-05, No Iterations 82
time step continuity errors : sum local = 5.57542796153e-08, global = 7.73970367642e-20, cumulative = 3.79313348359e-20
DICPCG:  Solving for p, Initial residual = 0.332267273102, Final residual = 0.00315664661883, No Iterations 35
time step continuity errors : sum local = 1.8205473799e-07, global = -5.23559434099e-20, cumulative = -1.4424608574e-20
DICPCG:  Solving for p, Initial residual = 0.00236868258105, Final residual = 2.08770849546e-05, No Iterations 82
ExecutionTime = 8.75 s  ClockTime = 34 s

volFieldValue error_velocity_norm write:
    max(region0) of error_velocity_mag = 1.28058351453e-05

volFieldValue L2_error_velocity_norm write:
    sqrt(sum(region0)) of error_velocity_mag_squ = 0.00115386794345

volFieldValue error_pressure_norm write:
    max(region0) of error_pres = 0.000906849293466

Courant Number mean: 0.123795860864 max: 0.152698293726
Time = 0.27

time step continuity errors : sum local = 1.10139083044e-07, global = -2.75489842383e-20, cumulative = -4.19735928124e-20
DICPCG:  Solving for p, Initial residual = 0.332264875514, Final residual = 0.00313479950218, No Iterations 35
time step continuity errors : sum local = 1.59722023637e-07, global = 6.39484014971e-21, cumulative = -3.55787526627e-20
DICPCG:  Solving for p, Initial residual = 0.00470385624529, Final residual = 4.19465721827e-05, No Iterations 82
time step continuity errors : sum local = 5.57543603858e-08, global = -7.51136250449e-20, cumulative = -1.10692377708e-19
DICPCG:  Solving for p, Initial residual = 0.332267272818, Final residual = 0.00315664031592, No Iterations 35
time step continuity errors : sum local = 1.8205447989e-07, global = 1.82672937543e-20, cumulative = -9.24250839533e-20
DICPCG:  Solving for p, Initial residual = 0.00236867766418, Final residual = 2.07820825236e-05, No Iterations 82
ExecutionTime = 8.99 s  ClockTime = 35 s

volFieldValue error_velocity_norm write:
    max(region0) of error_velocity_mag = 1.28058351453e-05

volFieldValue L2_error_velocity_norm write:
    sqrt(sum(region0)) of error_velocity_mag_squ = 0.00115386794345

volFieldValue error_pressure_norm write:
    max(region0) of error_pres = 0.000906849293466

Courant Number mean: 0.123795852412 max: 0.152698329394
Time = 0.2775

time step continuity errors : sum local = 1.10138892482e-07, global = -5.74473561512e-21, cumulative = -9.81698195684e-20
DICPCG:  Solving for p, Initial residual = 0.332264866395, Final residual = 0.00313476193875, No Iterations 35
time step continuity errors : sum local = 1.59719921937e-07, global = 6.43040279876e-20, cumulative = -3.38657915808e-20
DICPCG:  Solving for p, Initial residual = 0.00470379962309, Final residual = 4.19555044595e-05, No Iterations 82
time step continuity errors : sum local = 5.57542410256e-08, global = 8.40734816009e-20, cumulative = 5.02076900201e-20
DICPCG:  Solving for p, Initial residual = 0.332267272942, Final residual = 0.00315663691765, No Iterations 35
time step continuity errors : sum local = 1.82055328456e-07, global = 5.9696975308e-20, cumulative = 1.09904665328e-19
DICPCG:  Solving for p, Initial residual = 0.0023686747935, Final residual = 2.08689583393e-05, No Iterations 82
ExecutionTime = 9.24 s  ClockTime = 35 s

volFieldValue error_velocity_norm write:
    max(region0) of error_velocity_mag = 1.28058351453e-05

volFieldValue L2_error_velocity_norm write:
    sqrt(sum(region0)) of error_velocity_mag_squ = 0.00115386794345

volFieldValue error_pressure_norm write:
    max(region0) of error_pres = 0.000906849293466

Courant Number mean: 0.123795843963 max: 0.152698355916
Time = 0.285

time step continuity errors : sum local = 1.10138870365e-07, global = 5.50609575749e-20, cumulative = 1.64965622903e-19
DICPCG:  Solving for p, Initial residual = 0.33226487775, Final residual = 0.00313482827737, No Iterations 35
time step continuity errors : sum local = 1.59723467155e-07, global = -2.05249587593e-20, cumulative = 1.44440664144e-19
DICPCG:  Solving for p, Initial residual = 0.00470389808749, Final residual = 4.19511070327e-05, No Iterations 82
time step continuity errors : sum local = 5.57543008712e-08, global = -7.67919889795e-20, cumulative = 6.76486751642e-20
DICPCG:  Solving for p, Initial residual = 0.33226727372, Final residual = 0.00315663631357, No Iterations 35
time step continuity errors : sum local = 1.82054410639e-07, global = 5.50239466732e-20, cumulative = 1.22672621837e-19
DICPCG:  Solving for p, Initial residual = 0.00236867458066, Final residual = 2.08690034188e-05, No Iterations 82
ExecutionTime = 9.48 s  ClockTime = 35 s

volFieldValue error_velocity_norm write:
    max(region0) of error_velocity_mag = 1.28058351453e-05

volFieldValue L2_error_velocity_norm write:
    sqrt(sum(region0)) of error_velocity_mag_squ = 0.00115386794345

volFieldValue error_pressure_norm write:
    max(region0) of error_pres = 0.000906849293466

Courant Number mean: 0.123795835518 max: 0.152698373261
Time = 0.2925

time step continuity errors : sum local = 1.10138865009e-07, global = 7.03593333433e-20, cumulative = 1.93031955181e-19
DICPCG:  Solving for p, Initial residual = 0.332264877321, Final residual = 0.00313480018423, No Iterations 35
time step continuity errors : sum local = 1.59723285009e-07, global = -7.09161060387e-21, cumulative = 1.85940344577e-19
DICPCG:  Solving for p, Initial residual = 0.00470385629257, Final residual = 4.19500224802e-05, No Iterations 82
time step continuity errors : sum local = 5.57543142554e-08, global = 1.16466066456e-19, cumulative = 3.02406411033e-19
DICPCG:  Solving for p, Initial residual = 0.332267273634, Final residual = 0.00315663364769, No Iterations 35
time step continuity errors : sum local = 1.82053760438e-07, global = 3.12709936159e-20, cumulative = 3.33677404649e-19
DICPCG:  Solving for p, Initial residual = 0.00236867257103, Final residual = 2.08690460487e-05, No Iterations 82
ExecutionTime = 9.72 s  ClockTime = 35 s

volFieldValue error_velocity_norm write:
    max(region0) of error_velocity_mag = 1.28058351453e-05

volFieldValue L2_error_velocity_norm write:
    sqrt(sum(region0)) of error_velocity_mag_squ = 0.00115386794345

volFieldValue error_pressure_norm write:
    max(region0) of error_pres = 0.000906849293466

Courant Number mean: 0.123795827085 max: 0.152698381585
Time = 0.3

time step continuity errors : sum local = 1.10138819738e-07, global = 6.71120290096e-20, cumulative = 4.00789433658e-19
DICPCG:  Solving for p, Initial residual = 0.332264877797, Final residual = 0.00313479482832, No Iterations 35
time step continuity errors : sum local = 1.59723586546e-07, global = 8.97610916938e-20, cumulative = 4.90550525352e-19
DICPCG:  Solving for p, Initial residual = 0.00470384844051, Final residual = 4.19345207932e-05, No Iterations 82
time step continuity errors : sum local = 5.57542670363e-08, global = 5.84659605334e-20, cumulative = 5.49016485885e-19
DICPCG:  Solving for p, Initial residual = 0.332267274709, Final residual = 0.00315664284371, No Iterations 35
time step continuity errors : sum local = 1.82053256739e-07, global = 1.93969308416e-20, cumulative = 5.68413416727e-19
DICPCG:  Solving for p, Initial residual = 0.00236867975776, Final residual = 1.84297831444e-05, No Iterations 82
ExecutionTime = 9.96 s  ClockTime = 36 s

volFieldValue error_velocity_norm write:
    max(region0) of error_velocity_mag = 1.28058351453e-05

volFieldValue L2_error_velocity_norm write:
    sqrt(sum(region0)) of error_velocity_mag_squ = 0.00115386794345

volFieldValue error_pressure_norm write:
    max(region0) of error_pres = 0.000906849293466

End

