/*---------------------------------------------------------------------------*\
| =========                 |                                                 |
| \\      /  F ield         | OpenFOAM: The Open Source CFD Toolbox           |
|  \\    /   O peration     | Version:  2406                                  |
|   \\  /    A nd           | Website:  www.openfoam.com                      |
|    \\/     M anipulation  |                                                 |
\*---------------------------------------------------------------------------*/
Build  : _630d60de3b-20240620 OPENFOAM=2406 version=v2406
Arch   : "LSB;label=32;scalar=64"
Exec   : pimpleFoam
Date   : Sep 05 2024
Time   : 21:10:06
Host   : hakan-X556UQK
PID    : 26841
I/O    : uncollated
Case   : /home/hakan/courses/testSimulation/tgv2dTests/tgv2d_temporal/pimple/pimple_nu1/TGV_temporal
nProcs : 1
trapFpe: Floating point exception trapping enabled (FOAM_SIGFPE).
fileModificationChecking : Monitoring run-time modified files using timeStampMaster (fileModificationSkew 5, maxFileModificationPolls 20)
allowSystemOperations : Allowing user-supplied system call operations

// * * * * * * * * * * * * * * * * * * * * * * * * * * * * * * * * * * * * * //
Create time

Create mesh for time = 0


PIMPLE: Operating solver in PISO mode

Reading field p

Using #codeStream at line 19 in file "0/p"
Using #codeStream with "/home/hakan/courses/testSimulation/tgv2dTests/tgv2d_temporal/pimple/pimple_nu1/TGV_temporal/dynamicCode/platforms/linux64GccDPInt32Opt/lib/libcodeStream_537564b8bd232f4ddf4797bc6f60eef024868c2e.so"
Creating new library in "dynamicCode/_537564b8bd232f4ddf4797bc6f60eef024868c2e/platforms/linux64GccDPInt32Opt/lib/libcodeStream_537564b8bd232f4ddf4797bc6f60eef024868c2e.so"
Invoking wmake libso /home/hakan/courses/testSimulation/tgv2dTests/tgv2d_temporal/pimple/pimple_nu1/TGV_temporal/dynamicCode/_537564b8bd232f4ddf4797bc6f60eef024868c2e
wmake libso /home/hakan/courses/testSimulation/tgv2dTests/tgv2d_temporal/pimple/pimple_nu1/TGV_temporal/dynamicCode/_537564b8bd232f4ddf4797bc6f60eef024868c2e
    dep: codeStreamTemplate.C
    Ctoo: codeStreamTemplate.C
    link: /home/hakan/courses/testSimulation/tgv2dTests/tgv2d_temporal/pimple/pimple_nu1/TGV_temporal/dynamicCode/_537564b8bd232f4ddf4797bc6f60eef024868c2e/../platforms/linux64GccDPInt32Opt/lib/libcodeStream_537564b8bd232f4ddf4797bc6f60eef024868c2e.so
Reading field U

Using #codeStream at line 19 in file "0/U"
Using #codeStream with "/home/hakan/courses/testSimulation/tgv2dTests/tgv2d_temporal/pimple/pimple_nu1/TGV_temporal/dynamicCode/platforms/linux64GccDPInt32Opt/lib/libcodeStream_18dd48bdf5aea29696d9cbfe8eb27bc690b7dc03.so"
Creating new library in "dynamicCode/_18dd48bdf5aea29696d9cbfe8eb27bc690b7dc03/platforms/linux64GccDPInt32Opt/lib/libcodeStream_18dd48bdf5aea29696d9cbfe8eb27bc690b7dc03.so"
Invoking wmake libso /home/hakan/courses/testSimulation/tgv2dTests/tgv2d_temporal/pimple/pimple_nu1/TGV_temporal/dynamicCode/_18dd48bdf5aea29696d9cbfe8eb27bc690b7dc03
wmake libso /home/hakan/courses/testSimulation/tgv2dTests/tgv2d_temporal/pimple/pimple_nu1/TGV_temporal/dynamicCode/_18dd48bdf5aea29696d9cbfe8eb27bc690b7dc03
    dep: codeStreamTemplate.C
    Ctoo: codeStreamTemplate.C
    link: /home/hakan/courses/testSimulation/tgv2dTests/tgv2d_temporal/pimple/pimple_nu1/TGV_temporal/dynamicCode/_18dd48bdf5aea29696d9cbfe8eb27bc690b7dc03/../platforms/linux64GccDPInt32Opt/lib/libcodeStream_18dd48bdf5aea29696d9cbfe8eb27bc690b7dc03.so
Reading/calculating face flux field phi

Selecting incompressible transport model Newtonian
Selecting turbulence model type laminar
Selecting laminar stress model Stokes
No MRF models present

No finite volume options present
Courant Number mean: 0.247592318611 max: 0.305393450017
Courant Number mean: 0.247592318611 max: 0.305393450017

Starting time loop

Using dynamicCode for functionObject diff at line 51 in "/home/hakan/courses/testSimulation/tgv2dTests/tgv2d_temporal/pimple/pimple_nu1/TGV_temporal/system/controlDict/functions/diff"
Creating new library in "dynamicCode/diff/platforms/linux64GccDPInt32Opt/lib/libdiff_d924c92ec3fe0b16fec6b8892a9fc1c20fa93dd8.so"
Invoking wmake libso /home/hakan/courses/testSimulation/tgv2dTests/tgv2d_temporal/pimple/pimple_nu1/TGV_temporal/dynamicCode/diff
wmake libso /home/hakan/courses/testSimulation/tgv2dTests/tgv2d_temporal/pimple/pimple_nu1/TGV_temporal/dynamicCode/diff
    dep: functionObjectTemplate.C
    Ctoo: functionObjectTemplate.C
    link: /home/hakan/courses/testSimulation/tgv2dTests/tgv2d_temporal/pimple/pimple_nu1/TGV_temporal/dynamicCode/diff/../platforms/linux64GccDPInt32Opt/lib/libdiff_d924c92ec3fe0b16fec6b8892a9fc1c20fa93dd8.so
Courant Number mean: 0.247592318611 max: 0.305393450017
Time = 0.015

PIMPLE: iteration 1
DILUPBiCGStab:  Solving for Ux, Initial residual = 0.0147754017645, Final residual = 9.17208951552e-09, No Iterations 11
DILUPBiCGStab:  Solving for Uy, Initial residual = 0.0147754017645, Final residual = 9.51743897287e-09, No Iterations 11
DICPCG:  Solving for p, Initial residual = 0.536029319046, Final residual = 0.00503346153945, No Iterations 35
time step continuity errors : sum local = 4.71900133069e-08, global = -2.84799894482e-20, cumulative = -2.84799894482e-20
DICPCG:  Solving for p, Initial residual = 0.525141751142, Final residual = 0.00509558620169, No Iterations 35
time step continuity errors : sum local = 4.62380675731e-08, global = -5.51351805246e-21, cumulative = -3.39935075007e-20
DICPCG:  Solving for p, Initial residual = 0.00626036053923, Final residual = 6.16072487824e-05, No Iterations 50
time step continuity errors : sum local = 1.05227772279e-09, global = 3.89827907707e-19, cumulative = 3.55834400206e-19
DICPCG:  Solving for p, Initial residual = 0.0015114768351, Final residual = 8.93687313883e-13, No Iterations 203
time step continuity errors : sum local = 2.13028799018e-17, global = 2.33731894765e-20, cumulative = 3.79207589682e-19
ExecutionTime = 0.79 s  ClockTime = 56 s

    Reading error_velocity_mag (volScalarField)
    Reading error_velocity_mag_squ (volScalarField)
    Reading error_pres (volScalarField)
volFieldValue error_velocity_norm write:
    max(region0) of error_velocity_mag = 0.000436138851454

volFieldValue L2_error_velocity_norm write:
    sqrt(sum(region0)) of error_velocity_mag_squ = 0.0395099563306

volFieldValue error_pressure_norm write:
    max(region0) of error_pres = 0.0153909846914

Courant Number mean: 0.240382978013 max: 0.296501165501
Time = 0.03

PIMPLE: iteration 1
DILUPBiCGStab:  Solving for Ux, Initial residual = 0.0149219043181, Final residual = 9.91719567705e-09, No Iterations 9
DILUPBiCGStab:  Solving for Uy, Initial residual = 0.0149218819018, Final residual = 7.45044523728e-09, No Iterations 9
DICPCG:  Solving for p, Initial residual = 0.942681652772, Final residual = 0.00894011104874, No Iterations 35
time step continuity errors : sum local = 6.19770968911e-08, global = -5.01531913189e-20, cumulative = 3.29054398364e-19
DICPCG:  Solving for p, Initial residual = 0.937707329659, Final residual = 0.00910112622479, No Iterations 35
time step continuity errors : sum local = 5.96259662594e-08, global = 1.24254045222e-19, cumulative = 4.53308443585e-19
DICPCG:  Solving for p, Initial residual = 0.00880738525116, Final residual = 8.32433600873e-05, No Iterations 46
time step continuity errors : sum local = 1.06046484424e-09, global = 6.85974685903e-20, cumulative = 5.21905912175e-19
DICPCG:  Solving for p, Initial residual = 0.00206278235452, Final residual = 8.85282018497e-13, No Iterations 204
time step continuity errors : sum local = 2.03472330635e-17, global = -5.04711882271e-20, cumulative = 4.71434723948e-19
ExecutionTime = 1.45 s  ClockTime = 57 s

volFieldValue error_velocity_norm write:
    max(region0) of error_velocity_mag = 0.000436138851454

volFieldValue L2_error_velocity_norm write:
    sqrt(sum(region0)) of error_velocity_mag_squ = 0.0395099563306

volFieldValue error_pressure_norm write:
    max(region0) of error_pres = 0.0153909846914

Courant Number mean: 0.233315066138 max: 0.287783334132
Time = 0.045

PIMPLE: iteration 1
DILUPBiCGStab:  Solving for Ux, Initial residual = 0.0149728215997, Final residual = 9.9261542696e-09, No Iterations 9
DILUPBiCGStab:  Solving for Uy, Initial residual = 0.0149728159361, Final residual = 7.46178932905e-09, No Iterations 9
DICPCG:  Solving for p, Initial residual = 0.959820542918, Final residual = 0.00904294249347, No Iterations 35
time step continuity errors : sum local = 5.97935995546e-08, global = -1.03367023293e-19, cumulative = 3.68067700655e-19
DICPCG:  Solving for p, Initial residual = 0.955243465987, Final residual = 0.00927650730769, No Iterations 35
time step continuity errors : sum local = 5.73479953381e-08, global = 1.09132074675e-19, cumulative = 4.7719977533e-19
DICPCG:  Solving for p, Initial residual = 0.00890508803401, Final residual = 8.43537153818e-05, No Iterations 84
time step continuity errors : sum local = 1.00660798588e-09, global = 7.35073845964e-20, cumulative = 5.50707159926e-19
DICPCG:  Solving for p, Initial residual = 0.00212790755506, Final residual = 8.05945745302e-13, No Iterations 205
time step continuity errors : sum local = 1.87248518508e-17, global = -1.99750299579e-21, cumulative = 5.48709656931e-19
ExecutionTime = 2.08 s  ClockTime = 58 s

volFieldValue error_velocity_norm write:
    max(region0) of error_velocity_mag = 0.000436138851454

volFieldValue L2_error_velocity_norm write:
    sqrt(sum(region0)) of error_velocity_mag_squ = 0.0395099563306

volFieldValue error_pressure_norm write:
    max(region0) of error_pres = 0.0153909846914

Courant Number mean: 0.226431886727 max: 0.279293348629
Time = 0.06

PIMPLE: iteration 1
DILUPBiCGStab:  Solving for Ux, Initial residual = 0.0149905155682, Final residual = 9.90457266406e-09, No Iterations 9
DILUPBiCGStab:  Solving for Uy, Initial residual = 0.0149905113816, Final residual = 7.44883011451e-09, No Iterations 9
DICPCG:  Solving for p, Initial residual = 0.962639693053, Final residual = 0.009088723327, No Iterations 35
time step continuity errors : sum local = 5.64025421382e-08, global = 8.25684051219e-20, cumulative = 6.31278062053e-19
DICPCG:  Solving for p, Initial residual = 0.958146634859, Final residual = 0.00930462992341, No Iterations 35
time step continuity errors : sum local = 5.40339790516e-08, global = -6.1140199329e-20, cumulative = 5.70137862724e-19
DICPCG:  Solving for p, Initial residual = 0.00891626171945, Final residual = 8.70658502632e-05, No Iterations 50
time step continuity errors : sum local = 1.21610783736e-09, global = -6.59877725832e-21, cumulative = 5.63539085465e-19
DICPCG:  Solving for p, Initial residual = 0.00210432709762, Final residual = 9.55253219655e-13, No Iterations 204
time step continuity errors : sum local = 1.89719706125e-17, global = 2.98477088018e-20, cumulative = 5.93386794267e-19
ExecutionTime = 2.71 s  ClockTime = 58 s

volFieldValue error_velocity_norm write:
    max(region0) of error_velocity_mag = 0.000436138851454

volFieldValue L2_error_velocity_norm write:
    sqrt(sum(region0)) of error_velocity_mag_squ = 0.0395099563306

volFieldValue error_pressure_norm write:
    max(region0) of error_pres = 0.0153909846914

Courant Number mean: 0.219743969429 max: 0.271044190951
Time = 0.075

PIMPLE: iteration 1
DILUPBiCGStab:  Solving for Ux, Initial residual = 0.0149966569352, Final residual = 9.89031389232e-09, No Iterations 9
DILUPBiCGStab:  Solving for Uy, Initial residual = 0.014996628781, Final residual = 7.41574461324e-09, No Iterations 9
DICPCG:  Solving for p, Initial residual = 0.963812293061, Final residual = 0.0091695599102, No Iterations 35
time step continuity errors : sum local = 5.26168859208e-08, global = 1.31746339066e-19, cumulative = 7.25133133333e-19
DICPCG:  Solving for p, Initial residual = 0.95935250694, Final residual = 0.00930165770443, No Iterations 35
time step continuity errors : sum local = 5.0224386758e-08, global = 1.32704901306e-19, cumulative = 8.57838034639e-19
DICPCG:  Solving for p, Initial residual = 0.00894415295254, Final residual = 8.83666625109e-05, No Iterations 46
time step continuity errors : sum local = 1.0319377728e-09, global = 2.86900426586e-20, cumulative = 8.86528077297e-19
DICPCG:  Solving for p, Initial residual = 0.00208109794527, Final residual = 8.52625349037e-13, No Iterations 204
time step continuity errors : sum local = 1.7133782934e-17, global = 1.4254400888e-21, cumulative = 8.87953517386e-19
ExecutionTime = 3.35 s  ClockTime = 59 s

volFieldValue error_velocity_norm write:
    max(region0) of error_velocity_mag = 0.000436138851454

volFieldValue L2_error_velocity_norm write:
    sqrt(sum(region0)) of error_velocity_mag_squ = 0.0395099563306

volFieldValue error_pressure_norm write:
    max(region0) of error_pres = 0.0153909846914

Courant Number mean: 0.213250931182 max: 0.263035390062
Time = 0.09

PIMPLE: iteration 1
DILUPBiCGStab:  Solving for Ux, Initial residual = 0.014998833699, Final residual = 9.88249990315e-09, No Iterations 9
DILUPBiCGStab:  Solving for Uy, Initial residual = 0.0149988388655, Final residual = 7.41164527321e-09, No Iterations 9
DICPCG:  Solving for p, Initial residual = 0.964881479127, Final residual = 0.00913169534843, No Iterations 35
time step continuity errors : sum local = 5.08596161496e-08, global = -6.63922273149e-20, cumulative = 8.21561290071e-19
DICPCG:  Solving for p, Initial residual = 0.960150306249, Final residual = 0.00931403988624, No Iterations 35
time step continuity errors : sum local = 4.82484485364e-08, global = -9.32825583049e-20, cumulative = 7.28278731766e-19
DICPCG:  Solving for p, Initial residual = 0.00895013553962, Final residual = 8.76186910726e-05, No Iterations 85
time step continuity errors : sum local = 8.76360989122e-10, global = 2.8666495981e-20, cumulative = 7.56945227747e-19
DICPCG:  Solving for p, Initial residual = 0.00216970929193, Final residual = 8.36564387612e-13, No Iterations 205
time step continuity errors : sum local = 1.66573958264e-17, global = 6.4302398033e-20, cumulative = 8.2124762578e-19
ExecutionTime = 4.08 s  ClockTime = 60 s

volFieldValue error_velocity_norm write:
    max(region0) of error_velocity_mag = 0.000436138851454

volFieldValue L2_error_velocity_norm write:
    sqrt(sum(region0)) of error_velocity_mag_squ = 0.0395099563306

volFieldValue error_pressure_norm write:
    max(region0) of error_pres = 0.0153909846914

Courant Number mean: 0.20694883038 max: 0.255262086187
Time = 0.105

PIMPLE: iteration 1
DILUPBiCGStab:  Solving for Ux, Initial residual = 0.0149996139851, Final residual = 9.85725608742e-09, No Iterations 9
DILUPBiCGStab:  Solving for Uy, Initial residual = 0.0149996080968, Final residual = 7.387279926e-09, No Iterations 9
DICPCG:  Solving for p, Initial residual = 0.964900897699, Final residual = 0.00913455713434, No Iterations 35
time step continuity errors : sum local = 4.72964616145e-08, global = 6.64878723354e-20, cumulative = 8.87735498116e-19
DICPCG:  Solving for p, Initial residual = 0.960415119771, Final residual = 0.00931834192359, No Iterations 35
time step continuity errors : sum local = 4.51442429347e-08, global = -2.26181867418e-20, cumulative = 8.65117311374e-19
DICPCG:  Solving for p, Initial residual = 0.0089272376585, Final residual = 8.60750503884e-05, No Iterations 50
time step continuity errors : sum local = 1.00340967348e-09, global = 1.01024575163e-19, cumulative = 9.66141886537e-19
DICPCG:  Solving for p, Initial residual = 0.0021053367561, Final residual = 9.55477565032e-13, No Iterations 204
time step continuity errors : sum local = 1.60553981811e-17, global = 2.44718208874e-20, cumulative = 9.90613707424e-19
ExecutionTime = 4.75 s  ClockTime = 61 s

volFieldValue error_velocity_norm write:
    max(region0) of error_velocity_mag = 0.000436138851454

volFieldValue L2_error_velocity_norm write:
    sqrt(sum(region0)) of error_velocity_mag_squ = 0.0395099563306

volFieldValue error_pressure_norm write:
    max(region0) of error_pres = 0.0153909846914

Courant Number mean: 0.200832639034 max: 0.247718079416
Time = 0.12

PIMPLE: iteration 1
DILUPBiCGStab:  Solving for Ux, Initial residual = 0.0149998881922, Final residual = 9.84011061848e-09, No Iterations 9
DILUPBiCGStab:  Solving for Uy, Initial residual = 0.0149998626552, Final residual = 7.35644763577e-09, No Iterations 9
DICPCG:  Solving for p, Initial residual = 0.96492509418, Final residual = 0.00917969929448, No Iterations 35
time step continuity errors : sum local = 4.39494898612e-08, global = -7.75599651902e-21, cumulative = 9.82857710905e-19
DICPCG:  Solving for p, Initial residual = 0.960465791557, Final residual = 0.00931347852155, No Iterations 35
time step continuity errors : sum local = 4.1977018469e-08, global = 1.02416607474e-19, cumulative = 1.08527431838e-18
DICPCG:  Solving for p, Initial residual = 0.00894822161775, Final residual = 8.76984438581e-05, No Iterations 46
time step continuity errors : sum local = 8.51756152938e-10, global = -2.35195166006e-20, cumulative = 1.06175480178e-18
DICPCG:  Solving for p, Initial residual = 0.00208238758941, Final residual = 8.55061394936e-13, No Iterations 204
time step continuity errors : sum local = 1.41735107098e-17, global = 1.08087569502e-19, cumulative = 1.16984237128e-18
ExecutionTime = 5.39 s  ClockTime = 61 s

volFieldValue error_velocity_norm write:
    max(region0) of error_velocity_mag = 0.000436138851454

volFieldValue L2_error_velocity_norm write:
    sqrt(sum(region0)) of error_velocity_mag_squ = 0.0395099563306

volFieldValue error_pressure_norm write:
    max(region0) of error_pres = 0.0153909846914

Courant Number mean: 0.194897072725 max: 0.240396854867
Time = 0.135

PIMPLE: iteration 1
DILUPBiCGStab:  Solving for Ux, Initial residual = 0.0150000189742, Final residual = 9.83205490722e-09, No Iterations 9
DILUPBiCGStab:  Solving for Uy, Initial residual = 0.0150000231519, Final residual = 7.35212235447e-09, No Iterations 9
DICPCG:  Solving for p, Initial residual = 0.965525829631, Final residual = 0.00913556610981, No Iterations 35
time step continuity errors : sum local = 4.24502736756e-08, global = 7.44063949881e-20, cumulative = 1.24424876627e-18
DICPCG:  Solving for p, Initial residual = 0.960801336455, Final residual = 0.00932286633623, No Iterations 35
time step continuity errors : sum local = 4.03048763528e-08, global = 2.95331909777e-20, cumulative = 1.27378195725e-18
DICPCG:  Solving for p, Initial residual = 0.00895107119119, Final residual = 8.61975545925e-05, No Iterations 85
time step continuity errors : sum local = 7.20121256735e-10, global = 1.51768551743e-19, cumulative = 1.42555050899e-18
DICPCG:  Solving for p, Initial residual = 0.00216817792447, Final residual = 8.32458561738e-13, No Iterations 205
time step continuity errors : sum local = 1.34743789916e-17, global = 1.54626178492e-20, cumulative = 1.44101312684e-18
ExecutionTime = 6.06 s  ClockTime = 62 s

volFieldValue error_velocity_norm write:
    max(region0) of error_velocity_mag = 0.000436138851454

volFieldValue L2_error_velocity_norm write:
    sqrt(sum(region0)) of error_velocity_mag_squ = 0.0395099563306

volFieldValue error_pressure_norm write:
    max(region0) of error_pres = 0.0153909846914

Courant Number mean: 0.189136866653 max: 0.233291920492
Time = 0.15

PIMPLE: iteration 1
DILUPBiCGStab:  Solving for Ux, Initial residual = 0.0150000843007, Final residual = 9.81046687705e-09, No Iterations 9
DILUPBiCGStab:  Solving for Uy, Initial residual = 0.0150000790189, Final residual = 7.33094481753e-09, No Iterations 9
DICPCG:  Solving for p, Initial residual = 0.965366248949, Final residual = 0.00913963072223, No Iterations 35
time step continuity errors : sum local = 3.95088166289e-08, global = -3.84108793089e-21, cumulative = 1.43717203891e-18
DICPCG:  Solving for p, Initial residual = 0.960870808396, Final residual = 0.00932435483621, No Iterations 35
time step continuity errors : sum local = 3.77161297391e-08, global = -9.96096121836e-21, cumulative = 1.42721107769e-18
DICPCG:  Solving for p, Initial residual = 0.00892887208155, Final residual = 8.62919800135e-05, No Iterations 50
time step continuity errors : sum local = 8.39887679588e-10, global = -2.12855931336e-20, cumulative = 1.40592548456e-18
DICPCG:  Solving for p, Initial residual = 0.0021054549816, Final residual = 9.55761851273e-13, No Iterations 204
time step continuity errors : sum local = 1.37373616635e-17, global = -5.1328743993e-20, cumulative = 1.35459674056e-18
ExecutionTime = 6.71 s  ClockTime = 63 s

volFieldValue error_velocity_norm write:
    max(region0) of error_velocity_mag = 0.000436138851454

volFieldValue L2_error_velocity_norm write:
    sqrt(sum(region0)) of error_velocity_mag_squ = 0.0395099563306

volFieldValue error_pressure_norm write:
    max(region0) of error_pres = 0.0153909846914

Courant Number mean: 0.183546864989 max: 0.226396918046
Time = 0.165

PIMPLE: iteration 1
DILUPBiCGStab:  Solving for Ux, Initial residual = 0.0150001079614, Final residual = 9.7961326998e-09, No Iterations 9
DILUPBiCGStab:  Solving for Uy, Initial residual = 0.0150000845606, Final residual = 7.30414626923e-09, No Iterations 9
DICPCG:  Solving for p, Initial residual = 0.965296027005, Final residual = 0.00918506562413, No Iterations 35
time step continuity errors : sum local = 3.67193024852e-08, global = 1.57199279275e-20, cumulative = 1.37031666849e-18
DICPCG:  Solving for p, Initial residual = 0.960823367754, Final residual = 0.00931774288111, No Iterations 35
time step continuity errors : sum local = 3.50651087895e-08, global = -6.13676956868e-21, cumulative = 1.36417989892e-18
DICPCG:  Solving for p, Initial residual = 0.00894943208067, Final residual = 8.74958107358e-05, No Iterations 46
time step continuity errors : sum local = 7.10260271962e-10, global = -6.38019419166e-21, cumulative = 1.35779970473e-18
DICPCG:  Solving for p, Initial residual = 0.00208240213847, Final residual = 8.54205946672e-13, No Iterations 204
time step continuity errors : sum local = 1.30674823742e-17, global = 1.01810735118e-19, cumulative = 1.45961043985e-18
ExecutionTime = 7.36 s  ClockTime = 63 s

volFieldValue error_velocity_norm write:
    max(region0) of error_velocity_mag = 0.000436138851454

volFieldValue L2_error_velocity_norm write:
    sqrt(sum(region0)) of error_velocity_mag_squ = 0.0395099563306

volFieldValue error_pressure_norm write:
    max(region0) of error_pres = 0.0153909846914

Courant Number mean: 0.178122048576 max: 0.219705658725
Time = 0.18

PIMPLE: iteration 1
DILUPBiCGStab:  Solving for Ux, Initial residual = 0.0150001448536, Final residual = 9.78998473185e-09, No Iterations 9
DILUPBiCGStab:  Solving for Uy, Initial residual = 0.0150001487148, Final residual = 7.30090052685e-09, No Iterations 9
DICPCG:  Solving for p, Initial residual = 0.965878302266, Final residual = 0.00914042086063, No Iterations 35
time step continuity errors : sum local = 3.54638799166e-08, global = -9.30180510453e-21, cumulative = 1.45030863474e-18
DICPCG:  Solving for p, Initial residual = 0.961142613354, Final residual = 0.00932719496546, No Iterations 35
time step continuity errors : sum local = 3.36699067805e-08, global = 6.91852429446e-21, cumulative = 1.45722715904e-18
DICPCG:  Solving for p, Initial residual = 0.00895222344418, Final residual = 8.55710623847e-05, No Iterations 85
time step continuity errors : sum local = 5.97171346096e-10, global = -3.2689498654e-20, cumulative = 1.42453766038e-18
DICPCG:  Solving for p, Initial residual = 0.00216838312068, Final residual = 8.30876864071e-13, No Iterations 205
time step continuity errors : sum local = 1.25392068028e-17, global = -2.1824487872e-20, cumulative = 1.40271317251e-18
ExecutionTime = 8.02 s  ClockTime = 64 s

volFieldValue error_velocity_norm write:
    max(region0) of error_velocity_mag = 0.000436138851454

volFieldValue L2_error_velocity_norm write:
    sqrt(sum(region0)) of error_velocity_mag_squ = 0.0395099563306

volFieldValue error_pressure_norm write:
    max(region0) of error_pres = 0.0153909846914

Courant Number mean: 0.172857541177 max: 0.213212128963
Time = 0.195

PIMPLE: iteration 1
DILUPBiCGStab:  Solving for Ux, Initial residual = 0.0150001738263, Final residual = 9.77180185062e-09, No Iterations 9
DILUPBiCGStab:  Solving for Uy, Initial residual = 0.0150001690235, Final residual = 7.28285478614e-09, No Iterations 9
DICPCG:  Solving for p, Initial residual = 0.965701707703, Final residual = 0.00914459175793, No Iterations 35
time step continuity errors : sum local = 3.30058075832e-08, global = -1.40889842107e-20, cumulative = 1.3886241883e-18
DICPCG:  Solving for p, Initial residual = 0.961194151668, Final residual = 0.00932840951656, No Iterations 35
time step continuity errors : sum local = 3.15061554047e-08, global = -5.64936214201e-20, cumulative = 1.33213056688e-18
DICPCG:  Solving for p, Initial residual = 0.00892993616531, Final residual = 8.63762461728e-05, No Iterations 50
time step continuity errors : sum local = 7.01942146877e-10, global = -1.42494423099e-20, cumulative = 1.31788112457e-18
DICPCG:  Solving for p, Initial residual = 0.00210537790321, Final residual = 9.55938413158e-13, No Iterations 204
time step continuity errors : sum local = 1.2528709238e-17, global = -8.07719227682e-22, cumulative = 1.31707340534e-18
ExecutionTime = 8.66 s  ClockTime = 65 s

volFieldValue error_velocity_norm write:
    max(region0) of error_velocity_mag = 0.000436138851454

volFieldValue L2_error_velocity_norm write:
    sqrt(sum(region0)) of error_velocity_mag_squ = 0.0395099563306

volFieldValue error_pressure_norm write:
    max(region0) of error_pres = 0.0153909846914

Courant Number mean: 0.167748608364 max: 0.206910489678
Time = 0.21

PIMPLE: iteration 1
DILUPBiCGStab:  Solving for Ux, Initial residual = 0.0150001832956, Final residual = 9.76003657275e-09, No Iterations 9
DILUPBiCGStab:  Solving for Uy, Initial residual = 0.0150001618792, Final residual = 9.96925199567e-09, No Iterations 9
DICPCG:  Solving for p, Initial residual = 0.965597715822, Final residual = 0.00918921507237, No Iterations 35
time step continuity errors : sum local = 3.06748069641e-08, global = 9.5881216414e-20, cumulative = 1.41295462176e-18
DICPCG:  Solving for p, Initial residual = 0.9611058919, Final residual = 0.0093211070955, No Iterations 35
time step continuity errors : sum local = 2.92907688573e-08, global = 2.41442829992e-20, cumulative = 1.43709890476e-18
DICPCG:  Solving for p, Initial residual = 0.00895016275646, Final residual = 8.72772810745e-05, No Iterations 46
time step continuity errors : sum local = 5.91865437272e-10, global = -8.16835503944e-20, cumulative = 1.35541535436e-18
DICPCG:  Solving for p, Initial residual = 0.00208239901918, Final residual = 8.53348208215e-13, No Iterations 204
time step continuity errors : sum local = 1.17962385437e-17, global = -3.16790075391e-20, cumulative = 1.32373634682e-18
ExecutionTime = 9.3 s  ClockTime = 65 s

volFieldValue error_velocity_norm write:
    max(region0) of error_velocity_mag = 0.000436138851454

volFieldValue L2_error_velocity_norm write:
    sqrt(sum(region0)) of error_velocity_mag_squ = 0.0395099563306

volFieldValue error_pressure_norm write:
    max(region0) of error_pres = 0.0153909846914

Courant Number mean: 0.162790654859 max: 0.200795074656
Time = 0.225

PIMPLE: iteration 1
DILUPBiCGStab:  Solving for Ux, Initial residual = 0.0150002097341, Final residual = 9.75565196136e-09, No Iterations 9
DILUPBiCGStab:  Solving for Uy, Initial residual = 0.0150002132373, Final residual = 9.96554370777e-09, No Iterations 9
DICPCG:  Solving for p, Initial residual = 0.966178927009, Final residual = 0.00914414765779, No Iterations 35
time step continuity errors : sum local = 2.96232768758e-08, global = 1.38806973154e-20, cumulative = 1.33761704414e-18
DICPCG:  Solving for p, Initial residual = 0.961429339809, Final residual = 0.00933078314291, No Iterations 35
time step continuity errors : sum local = 2.81254412202e-08, global = -3.43004566095e-22, cumulative = 1.33727403957e-18
DICPCG:  Solving for p, Initial residual = 0.00895286878662, Final residual = 8.48744851984e-05, No Iterations 85
time step continuity errors : sum local = 4.94768460703e-10, global = -9.61130059862e-20, cumulative = 1.24116103359e-18
DICPCG:  Solving for p, Initial residual = 0.00216833251898, Final residual = 8.29639031624e-13, No Iterations 205
time step continuity errors : sum local = 1.15716901882e-17, global = -1.54177224834e-20, cumulative = 1.2257433111e-18
ExecutionTime = 9.96 s  ClockTime = 66 s

volFieldValue error_velocity_norm write:
    max(region0) of error_velocity_mag = 0.000436138851454

volFieldValue L2_error_velocity_norm write:
    sqrt(sum(region0)) of error_velocity_mag_squ = 0.0395099563306

volFieldValue error_pressure_norm write:
    max(region0) of error_pres = 0.0153909846914

Courant Number mean: 0.157979220853 max: 0.194860383136
Time = 0.24

PIMPLE: iteration 1
DILUPBiCGStab:  Solving for Ux, Initial residual = 0.0150002321285, Final residual = 9.74038763538e-09, No Iterations 9
DILUPBiCGStab:  Solving for Uy, Initial residual = 0.0150002277518, Final residual = 9.9442769788e-09, No Iterations 9
DICPCG:  Solving for p, Initial residual = 0.965994732868, Final residual = 0.00914866489904, No Iterations 35
time step continuity errors : sum local = 2.75716401441e-08, global = -2.92631019109e-20, cumulative = 1.19648020919e-18
DICPCG:  Solving for p, Initial residual = 0.961471151492, Final residual = 0.00933161636167, No Iterations 35
time step continuity errors : sum local = 2.63174029139e-08, global = -6.93793490324e-21, cumulative = 1.18954227429e-18
DICPCG:  Solving for p, Initial residual = 0.00893057902234, Final residual = 8.64563095029e-05, No Iterations 50
time step continuity errors : sum local = 5.86653336569e-10, global = 2.03712893445e-20, cumulative = 1.20991356363e-18
DICPCG:  Solving for p, Initial residual = 0.00210526858252, Final residual = 9.56019008776e-13, No Iterations 204
time step continuity errors : sum local = 1.14910585172e-17, global = 7.62321728059e-20, cumulative = 1.28614573644e-18
ExecutionTime = 10.61 s  ClockTime = 67 s

volFieldValue error_velocity_norm write:
    max(region0) of error_velocity_mag = 0.000436138851454

volFieldValue L2_error_velocity_norm write:
    sqrt(sum(region0)) of error_velocity_mag_squ = 0.0395099563306

volFieldValue error_pressure_norm write:
    max(region0) of error_pres = 0.0153909846914

Courant Number mean: 0.153309977864 max: 0.189101076182
Time = 0.255

PIMPLE: iteration 1
DILUPBiCGStab:  Solving for Ux, Initial residual = 0.015000238422, Final residual = 9.73080081832e-09, No Iterations 9
DILUPBiCGStab:  Solving for Uy, Initial residual = 0.0150002188248, Final residual = 9.91485964833e-09, No Iterations 9
DICPCG:  Solving for p, Initial residual = 0.96585294798, Final residual = 0.00919288558861, No Iterations 35
time step continuity errors : sum local = 2.56251602394e-08, global = -5.13300977644e-20, cumulative = 1.23481563868e-18
DICPCG:  Solving for p, Initial residual = 0.961340513371, Final residual = 0.00932389864737, No Iterations 35
time step continuity errors : sum local = 2.44668484936e-08, global = 7.24926899936e-20, cumulative = 1.30730832867e-18
DICPCG:  Solving for p, Initial residual = 0.00895081689203, Final residual = 8.70970020677e-05, No Iterations 46
time step continuity errors : sum local = 4.93426077804e-10, global = 7.51926755035e-20, cumulative = 1.38250100417e-18
DICPCG:  Solving for p, Initial residual = 0.0020824150857, Final residual = 8.52458790212e-13, No Iterations 204
time step continuity errors : sum local = 1.09295486147e-17, global = -7.7839228778e-21, cumulative = 1.37471708129e-18
ExecutionTime = 11.24 s  ClockTime = 67 s

volFieldValue error_velocity_norm write:
    max(region0) of error_velocity_mag = 0.000436138851454

volFieldValue L2_error_velocity_norm write:
    sqrt(sum(region0)) of error_velocity_mag_squ = 0.0395099563306

volFieldValue error_pressure_norm write:
    max(region0) of error_pres = 0.0153909846914

Courant Number mean: 0.148778725188 max: 0.183511973195
Time = 0.27

PIMPLE: iteration 1
DILUPBiCGStab:  Solving for Ux, Initial residual = 0.0150002592884, Final residual = 9.72757098856e-09, No Iterations 9
DILUPBiCGStab:  Solving for Uy, Initial residual = 0.0150002625123, Final residual = 9.92133899803e-09, No Iterations 9
DICPCG:  Solving for p, Initial residual = 0.966433961016, Final residual = 0.00914743355848, No Iterations 35
time step continuity errors : sum local = 2.47446469119e-08, global = -4.73974380237e-20, cumulative = 1.32731964327e-18
DICPCG:  Solving for p, Initial residual = 0.961666110126, Final residual = 0.00933386916815, No Iterations 35
time step continuity errors : sum local = 2.34939271932e-08, global = -4.15034016379e-20, cumulative = 1.28581624163e-18
DICPCG:  Solving for p, Initial residual = 0.00895352910173, Final residual = 8.42329971209e-05, No Iterations 85
time step continuity errors : sum local = 4.10164765271e-10, global = 5.22420522286e-20, cumulative = 1.33805829386e-18
DICPCG:  Solving for p, Initial residual = 0.00216834234873, Final residual = 8.28861801696e-13, No Iterations 205
time step continuity errors : sum local = 1.06784781135e-17, global = 9.58469972876e-21, cumulative = 1.34764299359e-18
ExecutionTime = 11.89 s  ClockTime = 68 s

volFieldValue error_velocity_norm write:
    max(region0) of error_velocity_mag = 0.000436138851454

volFieldValue L2_error_velocity_norm write:
    sqrt(sum(region0)) of error_velocity_mag_squ = 0.0395099563306

volFieldValue error_pressure_norm write:
    max(region0) of error_pres = 0.0153909846914

Courant Number mean: 0.144381386155 max: 0.178088046139
Time = 0.285

PIMPLE: iteration 1
DILUPBiCGStab:  Solving for Ux, Initial residual = 0.0150002774397, Final residual = 9.71465722164e-09, No Iterations 9
DILUPBiCGStab:  Solving for Uy, Initial residual = 0.015000273494, Final residual = 9.90335930705e-09, No Iterations 9
DICPCG:  Solving for p, Initial residual = 0.966244430202, Final residual = 0.00915233103095, No Iterations 35
time step continuity errors : sum local = 2.30321178953e-08, global = -4.52755969935e-20, cumulative = 1.3023673966e-18
DICPCG:  Solving for p, Initial residual = 0.961702337263, Final residual = 0.00933448329075, No Iterations 35
time step continuity errors : sum local = 2.19833402238e-08, global = -5.71295451473e-21, cumulative = 1.29665444208e-18
DICPCG:  Solving for p, Initial residual = 0.0089312633957, Final residual = 8.65198071813e-05, No Iterations 50
time step continuity errors : sum local = 4.90225992683e-10, global = -1.02400390062e-21, cumulative = 1.29563043818e-18
DICPCG:  Solving for p, Initial residual = 0.00210520140393, Final residual = 9.56130249472e-13, No Iterations 204
time step continuity errors : sum local = 1.04510658011e-17, global = 5.66488387792e-20, cumulative = 1.35227927696e-18
ExecutionTime = 12.52 s  ClockTime = 69 s

volFieldValue error_velocity_norm write:
    max(region0) of error_velocity_mag = 0.000436138851454

volFieldValue L2_error_velocity_norm write:
    sqrt(sum(region0)) of error_velocity_mag_squ = 0.0395099563306

volFieldValue error_pressure_norm write:
    max(region0) of error_pres = 0.0153909846914

Courant Number mean: 0.140114004275 max: 0.172824414763
Time = 0.3

PIMPLE: iteration 1
DILUPBiCGStab:  Solving for Ux, Initial residual = 0.0150002818367, Final residual = 9.70697803278e-09, No Iterations 9
DILUPBiCGStab:  Solving for Uy, Initial residual = 0.0150002639344, Final residual = 9.87755542608e-09, No Iterations 9
DICPCG:  Solving for p, Initial residual = 0.966071917566, Final residual = 0.00919605105542, No Iterations 35
time step continuity errors : sum local = 2.14063053194e-08, global = -2.41287947414e-20, cumulative = 1.32815048222e-18
DICPCG:  Solving for p, Initial residual = 0.961538701225, Final residual = 0.00932621576616, No Iterations 35
time step continuity errors : sum local = 2.04370707803e-08, global = -5.10257635562e-21, cumulative = 1.32304790586e-18
DICPCG:  Solving for p, Initial residual = 0.00895137106011, Final residual = 8.69414172946e-05, No Iterations 46
time step continuity errors : sum local = 4.11457767169e-10, global = -2.19636192758e-20, cumulative = 1.30108428659e-18
DICPCG:  Solving for p, Initial residual = 0.00208243615844, Final residual = 8.51558785801e-13, No Iterations 204
time step continuity errors : sum local = 9.98156117338e-18, global = -2.54760045114e-20, cumulative = 1.27560828208e-18
ExecutionTime = 13.15 s  ClockTime = 70 s

volFieldValue error_velocity_norm write:
    max(region0) of error_velocity_mag = 0.000436138851454

volFieldValue L2_error_velocity_norm write:
    sqrt(sum(region0)) of error_velocity_mag_squ = 0.0395099563306

volFieldValue error_pressure_norm write:
    max(region0) of error_pres = 0.0153909846914

End

