/*---------------------------------------------------------------------------*\
| =========                 |                                                 |
| \\      /  F ield         | OpenFOAM: The Open Source CFD Toolbox           |
|  \\    /   O peration     | Version:  2406                                  |
|   \\  /    A nd           | Website:  www.openfoam.com                      |
|    \\/     M anipulation  |                                                 |
\*---------------------------------------------------------------------------*/
Build  : _630d60de3b-20240620 OPENFOAM=2406 version=v2406
Arch   : "LSB;label=32;scalar=64"
Exec   : erkFoam
Date   : Sep 10 2024
Time   : 00:26:14
Host   : hakan-X556UQK
PID    : 12726
I/O    : uncollated
Case   : /home/hakan/courses/testSimulation/tgv2dTests/tgv2d_temporal/rk4FoamMultigrid/rk4_nu0.0000001/TGV_temporal
nProcs : 1
trapFpe: Floating point exception trapping enabled (FOAM_SIGFPE).
fileModificationChecking : Monitoring run-time modified files using timeStampMaster (fileModificationSkew 5, maxFileModificationPolls 20)
allowSystemOperations : Allowing user-supplied system call operations

// * * * * * * * * * * * * * * * * * * * * * * * * * * * * * * * * * * * * * //
Create time

Create mesh for time = 0


PISO: Operating solver in PISO mode

Reading field p

Using #codeStream at line 19 in file "0/p"
Using #codeStream with "/home/hakan/courses/testSimulation/tgv2dTests/tgv2d_temporal/rk4FoamMultigrid/rk4_nu0.0000001/TGV_temporal/dynamicCode/platforms/linux64GccDPInt32Opt/lib/libcodeStream_537564b8bd232f4ddf4797bc6f60eef024868c2e.so"
Creating new library in "dynamicCode/_537564b8bd232f4ddf4797bc6f60eef024868c2e/platforms/linux64GccDPInt32Opt/lib/libcodeStream_537564b8bd232f4ddf4797bc6f60eef024868c2e.so"
Invoking wmake libso /home/hakan/courses/testSimulation/tgv2dTests/tgv2d_temporal/rk4FoamMultigrid/rk4_nu0.0000001/TGV_temporal/dynamicCode/_537564b8bd232f4ddf4797bc6f60eef024868c2e
wmake libso /home/hakan/courses/testSimulation/tgv2dTests/tgv2d_temporal/rk4FoamMultigrid/rk4_nu0.0000001/TGV_temporal/dynamicCode/_537564b8bd232f4ddf4797bc6f60eef024868c2e
    dep: codeStreamTemplate.C
    Ctoo: codeStreamTemplate.C
    link: /home/hakan/courses/testSimulation/tgv2dTests/tgv2d_temporal/rk4FoamMultigrid/rk4_nu0.0000001/TGV_temporal/dynamicCode/_537564b8bd232f4ddf4797bc6f60eef024868c2e/../platforms/linux64GccDPInt32Opt/lib/libcodeStream_537564b8bd232f4ddf4797bc6f60eef024868c2e.so
Reading field U

Using #codeStream at line 19 in file "0/U"
Using #codeStream with "/home/hakan/courses/testSimulation/tgv2dTests/tgv2d_temporal/rk4FoamMultigrid/rk4_nu0.0000001/TGV_temporal/dynamicCode/platforms/linux64GccDPInt32Opt/lib/libcodeStream_18dd48bdf5aea29696d9cbfe8eb27bc690b7dc03.so"
Creating new library in "dynamicCode/_18dd48bdf5aea29696d9cbfe8eb27bc690b7dc03/platforms/linux64GccDPInt32Opt/lib/libcodeStream_18dd48bdf5aea29696d9cbfe8eb27bc690b7dc03.so"
Invoking wmake libso /home/hakan/courses/testSimulation/tgv2dTests/tgv2d_temporal/rk4FoamMultigrid/rk4_nu0.0000001/TGV_temporal/dynamicCode/_18dd48bdf5aea29696d9cbfe8eb27bc690b7dc03
wmake libso /home/hakan/courses/testSimulation/tgv2dTests/tgv2d_temporal/rk4FoamMultigrid/rk4_nu0.0000001/TGV_temporal/dynamicCode/_18dd48bdf5aea29696d9cbfe8eb27bc690b7dc03
    dep: codeStreamTemplate.C
    Ctoo: codeStreamTemplate.C
    link: /home/hakan/courses/testSimulation/tgv2dTests/tgv2d_temporal/rk4FoamMultigrid/rk4_nu0.0000001/TGV_temporal/dynamicCode/_18dd48bdf5aea29696d9cbfe8eb27bc690b7dc03/../platforms/linux64GccDPInt32Opt/lib/libcodeStream_18dd48bdf5aea29696d9cbfe8eb27bc690b7dc03.so
Reading field dU1

Using #codeStream at line 19 in file "0/dU1"
Reading field dU2

Using #codeStream at line 19 in file "0/dU2"
Reading field dU3

Using #codeStream at line 19 in file "0/dU"
Reading field Uold

Using #codeStream at line 19 in file "0/Uold"
Reading field dU

Using #codeStream at line 19 in file "0/dU"
Reading/calculating face flux field phi

Selecting incompressible transport model Newtonian
Selecting turbulence model type laminar
Selecting laminar stress model Stokes
No MRF models present

No finite volume options present

Starting time loop

Using dynamicCode for functionObject diff at line 51 in "/home/hakan/courses/testSimulation/tgv2dTests/tgv2d_temporal/rk4FoamMultigrid/rk4_nu0.0000001/TGV_temporal/system/controlDict/functions/diff"
Creating new library in "dynamicCode/diff/platforms/linux64GccDPInt32Opt/lib/libdiff_d924c92ec3fe0b16fec6b8892a9fc1c20fa93dd8.so"
Invoking wmake libso /home/hakan/courses/testSimulation/tgv2dTests/tgv2d_temporal/rk4FoamMultigrid/rk4_nu0.0000001/TGV_temporal/dynamicCode/diff
wmake libso /home/hakan/courses/testSimulation/tgv2dTests/tgv2d_temporal/rk4FoamMultigrid/rk4_nu0.0000001/TGV_temporal/dynamicCode/diff
    dep: functionObjectTemplate.C
    Ctoo: functionObjectTemplate.C
    link: /home/hakan/courses/testSimulation/tgv2dTests/tgv2d_temporal/rk4FoamMultigrid/rk4_nu0.0000001/TGV_temporal/dynamicCode/diff/../platforms/linux64GccDPInt32Opt/lib/libdiff_d924c92ec3fe0b16fec6b8892a9fc1c20fa93dd8.so
Time = 0.0075

Courant Number mean: 0.123796159305 max: 0.152696725009
GAMG:  Solving for p, Initial residual = 0.000903861372793, Final residual = 6.58321210664e-06, No Iterations 6
time step continuity errors : sum local = 3.98713633785e-14, global = 5.5903346747e-20, cumulative = 5.5903346747e-20
GAMG:  Solving for p, Initial residual = 1.97280000527e-05, Final residual = 1.12313421902e-07, No Iterations 6
time step continuity errors : sum local = 5.45353808506e-08, global = 9.18176104938e-20, cumulative = 1.47720957241e-19
GAMG:  Solving for p, Initial residual = 8.92397045496e-06, Final residual = 8.90999128557e-08, No Iterations 5
time step continuity errors : sum local = 1.09439925576e-07, global = -3.49415095649e-20, cumulative = 1.12779447676e-19
ExecutionTime = 0.71 s  ClockTime = 30 s

    Reading error_velocity_mag (volScalarField)
    Reading error_velocity_mag_squ (volScalarField)
    Reading error_pres (volScalarField)
volFieldValue error_velocity_norm write:
    max(region0) of error_velocity_mag = 1.27413282436e-05

volFieldValue L2_error_velocity_norm write:
    sqrt(sum(region0)) of error_velocity_mag_squ = 0.00115452585212

volFieldValue error_pressure_norm write:
    max(region0) of error_pres = 0.00093930042432

Time = 0.015

Courant Number mean: 0.123796152992 max: 0.152696726903
GAMG:  Solving for p, Initial residual = 0.0024156612814, Final residual = 1.77400241766e-05, No Iterations 6
time step continuity errors : sum local = 1.09444648474e-07, global = 2.66044016596e-20, cumulative = 1.39383849335e-19
GAMG:  Solving for p, Initial residual = 0.00118882780294, Final residual = 8.51825128459e-06, No Iterations 6
time step continuity errors : sum local = 5.55400191583e-08, global = 3.20104070655e-20, cumulative = 1.71394256401e-19
GAMG:  Solving for p, Initial residual = 1.48943738225e-05, Final residual = 1.19566074518e-07, No Iterations 6
time step continuity errors : sum local = 1.09222442672e-07, global = 3.21061526591e-20, cumulative = 2.0350040906e-19
ExecutionTime = 1.05 s  ClockTime = 30 s

volFieldValue error_velocity_norm write:
    max(region0) of error_velocity_mag = 1.27413282436e-05

volFieldValue L2_error_velocity_norm write:
    sqrt(sum(region0)) of error_velocity_mag_squ = 0.00115452585212

volFieldValue error_pressure_norm write:
    max(region0) of error_pres = 0.00093930042432

Time = 0.0225

Courant Number mean: 0.123796144607 max: 0.152696729436
GAMG:  Solving for p, Initial residual = 0.00478742195561, Final residual = 3.44459564574e-05, No Iterations 6
time step continuity errors : sum local = 1.097026909e-07, global = 3.36091171029e-20, cumulative = 2.37109526163e-19
GAMG:  Solving for p, Initial residual = 0.00118137253992, Final residual = 8.33075340709e-06, No Iterations 6
time step continuity errors : sum local = 5.60694324126e-08, global = -1.07999420395e-20, cumulative = 2.26309584123e-19
GAMG:  Solving for p, Initial residual = 1.47538044824e-05, Final residual = 1.18533021974e-07, No Iterations 6
time step continuity errors : sum local = 1.09233200132e-07, global = 6.63718109751e-20, cumulative = 2.92681395099e-19
ExecutionTime = 1.34 s  ClockTime = 30 s

volFieldValue error_velocity_norm write:
    max(region0) of error_velocity_mag = 1.27413282436e-05

volFieldValue L2_error_velocity_norm write:
    sqrt(sum(region0)) of error_velocity_mag_squ = 0.00115452585212

volFieldValue error_pressure_norm write:
    max(region0) of error_pres = 0.00093930042432

Time = 0.03

Courant Number mean: 0.123796136143 max: 0.152696732076
GAMG:  Solving for p, Initial residual = 0.0047620136587, Final residual = 3.38590889095e-05, No Iterations 6
time step continuity errors : sum local = 1.09703303416e-07, global = 4.36052789071e-20, cumulative = 3.36286674006e-19
GAMG:  Solving for p, Initial residual = 0.00118171475486, Final residual = 8.33687734152e-06, No Iterations 6
time step continuity errors : sum local = 5.60514593663e-08, global = 1.20218650057e-19, cumulative = 4.56505324062e-19
GAMG:  Solving for p, Initial residual = 1.47600432744e-05, Final residual = 1.18225395975e-07, No Iterations 6
time step continuity errors : sum local = 1.09232884993e-07, global = -2.63453253475e-20, cumulative = 4.30159998715e-19
ExecutionTime = 1.63 s  ClockTime = 30 s

volFieldValue error_velocity_norm write:
    max(region0) of error_velocity_mag = 1.27413282436e-05

volFieldValue L2_error_velocity_norm write:
    sqrt(sum(region0)) of error_velocity_mag_squ = 0.00115452585212

volFieldValue error_pressure_norm write:
    max(region0) of error_pres = 0.00093930042432

Time = 0.0375

Courant Number mean: 0.123796127681 max: 0.152696734728
GAMG:  Solving for p, Initial residual = 0.00476305687082, Final residual = 3.38775185077e-05, No Iterations 6
time step continuity errors : sum local = 1.09703327311e-07, global = 1.97155464304e-20, cumulative = 4.49875545145e-19
GAMG:  Solving for p, Initial residual = 0.00118170529791, Final residual = 8.33685811724e-06, No Iterations 6
time step continuity errors : sum local = 5.60519883404e-08, global = -5.76589619589e-20, cumulative = 3.92216583186e-19
GAMG:  Solving for p, Initial residual = 1.47599515396e-05, Final residual = 1.18299847363e-07, No Iterations 6
time step continuity errors : sum local = 1.09232875966e-07, global = 8.22929353942e-21, cumulative = 4.00445876726e-19
ExecutionTime = 1.93 s  ClockTime = 31 s

volFieldValue error_velocity_norm write:
    max(region0) of error_velocity_mag = 1.27413282436e-05

volFieldValue L2_error_velocity_norm write:
    sqrt(sum(region0)) of error_velocity_mag_squ = 0.00115452585212

volFieldValue error_pressure_norm write:
    max(region0) of error_pres = 0.00093930042432

Time = 0.045

Courant Number mean: 0.123796119219 max: 0.152696737377
GAMG:  Solving for p, Initial residual = 0.00476302747614, Final residual = 3.38774652147e-05, No Iterations 6
time step continuity errors : sum local = 1.09703319675e-07, global = 1.67353642569e-20, cumulative = 4.17181240983e-19
GAMG:  Solving for p, Initial residual = 0.00118170519509, Final residual = 8.33682352814e-06, No Iterations 6
time step continuity errors : sum local = 5.60519865704e-08, global = -5.50657850838e-21, cumulative = 4.11674662474e-19
GAMG:  Solving for p, Initial residual = 1.47599482489e-05, Final residual = 1.18286134163e-07, No Iterations 6
time step continuity errors : sum local = 1.09232870812e-07, global = -2.73059996227e-20, cumulative = 3.84368662852e-19
ExecutionTime = 2.21 s  ClockTime = 31 s

volFieldValue error_velocity_norm write:
    max(region0) of error_velocity_mag = 1.27413282436e-05

volFieldValue L2_error_velocity_norm write:
    sqrt(sum(region0)) of error_velocity_mag_squ = 0.00115452585212

volFieldValue error_pressure_norm write:
    max(region0) of error_pres = 0.00093930042432

Time = 0.0525

Courant Number mean: 0.123796110758 max: 0.152696740029
GAMG:  Solving for p, Initial residual = 0.00476302741763, Final residual = 3.38773598296e-05, No Iterations 6
time step continuity errors : sum local = 1.09703316392e-07, global = 5.07001078503e-20, cumulative = 4.35068770702e-19
GAMG:  Solving for p, Initial residual = 0.0011817053299, Final residual = 8.3368305729e-06, No Iterations 6
time step continuity errors : sum local = 5.60519777723e-08, global = -8.11818037577e-20, cumulative = 3.53886966944e-19
GAMG:  Solving for p, Initial residual = 1.4759970899e-05, Final residual = 1.18288607737e-07, No Iterations 6
time step continuity errors : sum local = 1.09232862352e-07, global = -2.01628955903e-20, cumulative = 3.33724071354e-19
ExecutionTime = 2.57 s  ClockTime = 31 s

volFieldValue error_velocity_norm write:
    max(region0) of error_velocity_mag = 1.27413282436e-05

volFieldValue L2_error_velocity_norm write:
    sqrt(sum(region0)) of error_velocity_mag_squ = 0.00115452585212

volFieldValue error_pressure_norm write:
    max(region0) of error_pres = 0.00093930042432

Time = 0.06

Courant Number mean: 0.123796102297 max: 0.152696742688
GAMG:  Solving for p, Initial residual = 0.00476302795397, Final residual = 3.38773812891e-05, No Iterations 6
time step continuity errors : sum local = 1.09703310748e-07, global = -5.27678908378e-20, cumulative = 2.80956180516e-19
GAMG:  Solving for p, Initial residual = 0.00118170535733, Final residual = 8.33682909778e-06, No Iterations 6
time step continuity errors : sum local = 5.60519736111e-08, global = -5.025436786e-21, cumulative = 2.7593074373e-19
GAMG:  Solving for p, Initial residual = 1.47599899892e-05, Final residual = 1.18288253321e-07, No Iterations 6
time step continuity errors : sum local = 1.0923285413e-07, global = -8.62032176196e-20, cumulative = 1.89727526111e-19
ExecutionTime = 2.91 s  ClockTime = 32 s

volFieldValue error_velocity_norm write:
    max(region0) of error_velocity_mag = 1.27413282436e-05

volFieldValue L2_error_velocity_norm write:
    sqrt(sum(region0)) of error_velocity_mag_squ = 0.00115452585212

volFieldValue error_pressure_norm write:
    max(region0) of error_pres = 0.00093930042432

Time = 0.0675

Courant Number mean: 0.123796093837 max: 0.152696745354
GAMG:  Solving for p, Initial residual = 0.00476302817717, Final residual = 3.38773767898e-05, No Iterations 6
time step continuity errors : sum local = 1.09703304259e-07, global = -5.86735434169e-20, cumulative = 1.31053982694e-19
GAMG:  Solving for p, Initial residual = 0.00118170540424, Final residual = 8.3368291081e-06, No Iterations 6
time step continuity errors : sum local = 5.60519684808e-08, global = -3.41176147092e-20, cumulative = 9.69363679844e-20
GAMG:  Solving for p, Initial residual = 1.47600106301e-05, Final residual = 1.18288372977e-07, No Iterations 6
time step continuity errors : sum local = 1.09232845588e-07, global = 3.51056448682e-20, cumulative = 1.32042012853e-19
ExecutionTime = 3.3 s  ClockTime = 32 s

volFieldValue error_velocity_norm write:
    max(region0) of error_velocity_mag = 1.27413282436e-05

volFieldValue L2_error_velocity_norm write:
    sqrt(sum(region0)) of error_velocity_mag_squ = 0.00115452585212

volFieldValue error_pressure_norm write:
    max(region0) of error_pres = 0.00093930042432

Time = 0.075

Courant Number mean: 0.123796085378 max: 0.152696748025
GAMG:  Solving for p, Initial residual = 0.00476302845217, Final residual = 3.38773768228e-05, No Iterations 6
time step continuity errors : sum local = 1.09703296975e-07, global = -1.59146877405e-20, cumulative = 1.16127325112e-19
GAMG:  Solving for p, Initial residual = 0.00118170544559, Final residual = 8.33682886596e-06, No Iterations 6
time step continuity errors : sum local = 5.60519634962e-08, global = -3.91848899058e-20, cumulative = 7.69424352063e-20
GAMG:  Solving for p, Initial residual = 1.47600312616e-05, Final residual = 1.18288414763e-07, No Iterations 6
time step continuity errors : sum local = 1.09232836909e-07, global = 2.30594009425e-20, cumulative = 1.00001836149e-19
ExecutionTime = 3.66 s  ClockTime = 33 s

volFieldValue error_velocity_norm write:
    max(region0) of error_velocity_mag = 1.27413282436e-05

volFieldValue L2_error_velocity_norm write:
    sqrt(sum(region0)) of error_velocity_mag_squ = 0.00115452585212

volFieldValue error_pressure_norm write:
    max(region0) of error_pres = 0.00093930042432

Time = 0.0825

Courant Number mean: 0.123796076921 max: 0.152696750702
GAMG:  Solving for p, Initial residual = 0.00476302870861, Final residual = 3.38773760907e-05, No Iterations 6
time step continuity errors : sum local = 1.09703289166e-07, global = -2.54474086884e-20, cumulative = 7.45544274604e-20
GAMG:  Solving for p, Initial residual = 0.00118170548507, Final residual = 8.33682865864e-06, No Iterations 6
time step continuity errors : sum local = 5.60519584944e-08, global = -2.49614394571e-20, cumulative = 4.95929880033e-20
GAMG:  Solving for p, Initial residual = 1.47600518356e-05, Final residual = 1.18288468868e-07, No Iterations 6
time step continuity errors : sum local = 1.09232828123e-07, global = 4.51870926633e-20, cumulative = 9.47800806667e-20
ExecutionTime = 4.03 s  ClockTime = 33 s

volFieldValue error_velocity_norm write:
    max(region0) of error_velocity_mag = 1.27413282436e-05

volFieldValue L2_error_velocity_norm write:
    sqrt(sum(region0)) of error_velocity_mag_squ = 0.00115452585212

volFieldValue error_pressure_norm write:
    max(region0) of error_pres = 0.00093930042432

Time = 0.09

Courant Number mean: 0.123796068464 max: 0.152696753385
GAMG:  Solving for p, Initial residual = 0.0047630289579, Final residual = 3.38773754672e-05, No Iterations 6
time step continuity errors : sum local = 1.0970328105e-07, global = 2.09964454639e-20, cumulative = 1.15776526131e-19
GAMG:  Solving for p, Initial residual = 0.00118170552178, Final residual = 8.33682844272e-06, No Iterations 6
time step continuity errors : sum local = 5.605195352e-08, global = 4.22986331594e-20, cumulative = 1.5807515929e-19
GAMG:  Solving for p, Initial residual = 1.47600722077e-05, Final residual = 1.18288522648e-07, No Iterations 6
time step continuity errors : sum local = 1.09232819271e-07, global = -9.73064881362e-21, cumulative = 1.48344510476e-19
ExecutionTime = 4.33 s  ClockTime = 33 s

volFieldValue error_velocity_norm write:
    max(region0) of error_velocity_mag = 1.27413282436e-05

volFieldValue L2_error_velocity_norm write:
    sqrt(sum(region0)) of error_velocity_mag_squ = 0.00115452585212

volFieldValue error_pressure_norm write:
    max(region0) of error_pres = 0.00093930042432

Time = 0.0975

Courant Number mean: 0.123796060009 max: 0.152696756075
GAMG:  Solving for p, Initial residual = 0.00476302919854, Final residual = 3.38773748168e-05, No Iterations 6
time step continuity errors : sum local = 1.09703272674e-07, global = -3.69610174632e-20, cumulative = 1.11383493013e-19
GAMG:  Solving for p, Initial residual = 0.00118170555566, Final residual = 8.33682822561e-06, No Iterations 6
time step continuity errors : sum local = 5.60519485755e-08, global = 2.64780818428e-20, cumulative = 1.37861574856e-19
GAMG:  Solving for p, Initial residual = 1.47600923252e-05, Final residual = 1.18288577583e-07, No Iterations 6
time step continuity errors : sum local = 1.09232810379e-07, global = 1.76558092911e-20, cumulative = 1.55517384147e-19
ExecutionTime = 4.63 s  ClockTime = 33 s

volFieldValue error_velocity_norm write:
    max(region0) of error_velocity_mag = 1.27413282436e-05

volFieldValue L2_error_velocity_norm write:
    sqrt(sum(region0)) of error_velocity_mag_squ = 0.00115452585212

volFieldValue error_pressure_norm write:
    max(region0) of error_pres = 0.00093930042432

Time = 0.105

Courant Number mean: 0.123796051556 max: 0.152696758775
GAMG:  Solving for p, Initial residual = 0.00476302943255, Final residual = 3.38773741667e-05, No Iterations 6
time step continuity errors : sum local = 1.09703264118e-07, global = -6.33304803553e-20, cumulative = 9.21869037917e-20
GAMG:  Solving for p, Initial residual = 0.00118170558668, Final residual = 8.33682800588e-06, No Iterations 6
time step continuity errors : sum local = 5.60519436644e-08, global = 4.76032608779e-20, cumulative = 1.3979016467e-19
GAMG:  Solving for p, Initial residual = 1.47601121562e-05, Final residual = 1.18288634092e-07, No Iterations 6
time step continuity errors : sum local = 1.0923280147e-07, global = -8.45103711582e-20, cumulative = 5.52797935114e-20
ExecutionTime = 4.93 s  ClockTime = 34 s

volFieldValue error_velocity_norm write:
    max(region0) of error_velocity_mag = 1.27413282436e-05

volFieldValue L2_error_velocity_norm write:
    sqrt(sum(region0)) of error_velocity_mag_squ = 0.00115452585212

volFieldValue error_pressure_norm write:
    max(region0) of error_pres = 0.00093930042432

Time = 0.1125

Courant Number mean: 0.123796043104 max: 0.152696761482
GAMG:  Solving for p, Initial residual = 0.00476302966091, Final residual = 3.38773735161e-05, No Iterations 6
time step continuity errors : sum local = 1.09703255495e-07, global = 6.41028817826e-20, cumulative = 1.19382675294e-19
GAMG:  Solving for p, Initial residual = 0.00118170561484, Final residual = 8.33682778361e-06, No Iterations 6
time step continuity errors : sum local = 5.60519387881e-08, global = -7.91711462924e-21, cumulative = 1.11465560665e-19
GAMG:  Solving for p, Initial residual = 1.47601316815e-05, Final residual = 1.18288691939e-07, No Iterations 6
time step continuity errors : sum local = 1.09232792557e-07, global = -3.25856852118e-21, cumulative = 1.08206992144e-19
ExecutionTime = 5.25 s  ClockTime = 34 s

volFieldValue error_velocity_norm write:
    max(region0) of error_velocity_mag = 1.27413282436e-05

volFieldValue L2_error_velocity_norm write:
    sqrt(sum(region0)) of error_velocity_mag_squ = 0.00115452585212

volFieldValue error_pressure_norm write:
    max(region0) of error_pres = 0.00093930042432

Time = 0.12

Courant Number mean: 0.123796034653 max: 0.152696764199
GAMG:  Solving for p, Initial residual = 0.00476302988431, Final residual = 3.38773728628e-05, No Iterations 6
time step continuity errors : sum local = 1.09703246843e-07, global = 2.09610437318e-20, cumulative = 1.29168035875e-19
GAMG:  Solving for p, Initial residual = 0.00118170564015, Final residual = 8.33682755737e-06, No Iterations 6
time step continuity errors : sum local = 5.6051933946e-08, global = -4.4347910696e-20, cumulative = 8.48201251794e-20
GAMG:  Solving for p, Initial residual = 1.47601508904e-05, Final residual = 1.18288751259e-07, No Iterations 6
time step continuity errors : sum local = 1.09232783655e-07, global = -1.5966181169e-20, cumulative = 6.88539440104e-20
ExecutionTime = 5.57 s  ClockTime = 34 s

volFieldValue error_velocity_norm write:
    max(region0) of error_velocity_mag = 1.27413282436e-05

volFieldValue L2_error_velocity_norm write:
    sqrt(sum(region0)) of error_velocity_mag_squ = 0.00115452585212

volFieldValue error_pressure_norm write:
    max(region0) of error_pres = 0.00093930042432

Time = 0.1275

Courant Number mean: 0.123796026205 max: 0.152696766925
GAMG:  Solving for p, Initial residual = 0.0047630301034, Final residual = 3.3877372205e-05, No Iterations 6
time step continuity errors : sum local = 1.09703238253e-07, global = -2.5891539509e-21, cumulative = 6.62647900595e-20
GAMG:  Solving for p, Initial residual = 0.00118170566273, Final residual = 8.33682732697e-06, No Iterations 6
time step continuity errors : sum local = 5.60519291374e-08, global = 3.16121375795e-21, cumulative = 6.94260038174e-20
GAMG:  Solving for p, Initial residual = 1.47601697744e-05, Final residual = 1.18288811813e-07, No Iterations 6
time step continuity errors : sum local = 1.09232774771e-07, global = 5.53425622619e-20, cumulative = 1.24768566079e-19
ExecutionTime = 5.87 s  ClockTime = 35 s

volFieldValue error_velocity_norm write:
    max(region0) of error_velocity_mag = 1.27413282436e-05

volFieldValue L2_error_velocity_norm write:
    sqrt(sum(region0)) of error_velocity_mag_squ = 0.00115452585212

volFieldValue error_pressure_norm write:
    max(region0) of error_pres = 0.00093930042432

Time = 0.135

Courant Number mean: 0.123796017758 max: 0.152696769662
GAMG:  Solving for p, Initial residual = 0.00476303031875, Final residual = 3.38773715393e-05, No Iterations 6
time step continuity errors : sum local = 1.09703229694e-07, global = -1.16487790246e-20, cumulative = 1.13119787055e-19
GAMG:  Solving for p, Initial residual = 0.00118170568263, Final residual = 8.33682709241e-06, No Iterations 6
time step continuity errors : sum local = 5.60519243612e-08, global = -3.06957154695e-20, cumulative = 8.24240715853e-20
GAMG:  Solving for p, Initial residual = 1.47601883225e-05, Final residual = 1.18288874089e-07, No Iterations 6
time step continuity errors : sum local = 1.09232765916e-07, global = -2.0401052697e-20, cumulative = 6.20230188882e-20
ExecutionTime = 6.18 s  ClockTime = 35 s

volFieldValue error_velocity_norm write:
    max(region0) of error_velocity_mag = 1.27413282436e-05

volFieldValue L2_error_velocity_norm write:
    sqrt(sum(region0)) of error_velocity_mag_squ = 0.00115452585212

volFieldValue error_pressure_norm write:
    max(region0) of error_pres = 0.00093930042432

Time = 0.1425

Courant Number mean: 0.123796009314 max: 0.15269677241
GAMG:  Solving for p, Initial residual = 0.00476303053088, Final residual = 3.38773708648e-05, No Iterations 6
time step continuity errors : sum local = 1.09703221173e-07, global = 2.79190932555e-20, cumulative = 8.99421121438e-20
GAMG:  Solving for p, Initial residual = 0.00118170569988, Final residual = 8.33682685207e-06, No Iterations 6
time step continuity errors : sum local = 5.60519196163e-08, global = -8.41000329e-20, cumulative = 5.84207924378e-21
GAMG:  Solving for p, Initial residual = 1.47602065276e-05, Final residual = 1.1828893766e-07, No Iterations 6
time step continuity errors : sum local = 1.09232757093e-07, global = -4.17241595979e-20, cumulative = -3.58820803541e-20
ExecutionTime = 6.52 s  ClockTime = 35 s

volFieldValue error_velocity_norm write:
    max(region0) of error_velocity_mag = 1.27413282436e-05

volFieldValue L2_error_velocity_norm write:
    sqrt(sum(region0)) of error_velocity_mag_squ = 0.00115452585212

volFieldValue error_pressure_norm write:
    max(region0) of error_pres = 0.00093930042432

Time = 0.15

Courant Number mean: 0.123796000871 max: 0.152696775169
GAMG:  Solving for p, Initial residual = 0.00476303074025, Final residual = 3.38773701795e-05, No Iterations 6
time step continuity errors : sum local = 1.09703212687e-07, global = -6.17277473938e-21, cumulative = -4.20548550935e-20
GAMG:  Solving for p, Initial residual = 0.0011817057146, Final residual = 8.33682660644e-06, No Iterations 6
time step continuity errors : sum local = 5.60519149017e-08, global = 1.39506961948e-20, cumulative = -2.81041588987e-20
GAMG:  Solving for p, Initial residual = 1.47602243792e-05, Final residual = 1.18289002558e-07, No Iterations 6
time step continuity errors : sum local = 1.09232748309e-07, global = -2.59092403751e-20, cumulative = -5.40133992738e-20
ExecutionTime = 6.83 s  ClockTime = 36 s

volFieldValue error_velocity_norm write:
    max(region0) of error_velocity_mag = 1.27413282436e-05

volFieldValue L2_error_velocity_norm write:
    sqrt(sum(region0)) of error_velocity_mag_squ = 0.00115452585212

volFieldValue error_pressure_norm write:
    max(region0) of error_pres = 0.00093930042432

Time = 0.1575

Courant Number mean: 0.123795992431 max: 0.152696777941
GAMG:  Solving for p, Initial residual = 0.00476303094726, Final residual = 3.38773694828e-05, No Iterations 6
time step continuity errors : sum local = 1.09703204287e-07, global = 2.91259704856e-21, cumulative = -5.11008022252e-20
GAMG:  Solving for p, Initial residual = 0.00118170572691, Final residual = 8.33682635549e-06, No Iterations 6
time step continuity errors : sum local = 5.6051910217e-08, global = 1.71682308901e-20, cumulative = -3.39325713351e-20
GAMG:  Solving for p, Initial residual = 1.47602418692e-05, Final residual = 1.1828906906e-07, No Iterations 6
time step continuity errors : sum local = 1.09232739568e-07, global = -1.05307279587e-19, cumulative = -1.39239850922e-19
ExecutionTime = 7.17 s  ClockTime = 36 s

volFieldValue error_velocity_norm write:
    max(region0) of error_velocity_mag = 1.27413282436e-05

volFieldValue L2_error_velocity_norm write:
    sqrt(sum(region0)) of error_velocity_mag_squ = 0.00115452585212

volFieldValue error_pressure_norm write:
    max(region0) of error_pres = 0.00093930042432

Time = 0.165

Courant Number mean: 0.123795983994 max: 0.152696780726
GAMG:  Solving for p, Initial residual = 0.00476303115223, Final residual = 3.38773687745e-05, No Iterations 6
time step continuity errors : sum local = 1.09703195998e-07, global = -5.56450861543e-20, cumulative = -1.94884937076e-19
GAMG:  Solving for p, Initial residual = 0.0011817057369, Final residual = 8.33682610006e-06, No Iterations 6
time step continuity errors : sum local = 5.60519055611e-08, global = 2.21148183637e-20, cumulative = -1.72770118712e-19
GAMG:  Solving for p, Initial residual = 1.47602589794e-05, Final residual = 1.18289136807e-07, No Iterations 6
time step continuity errors : sum local = 1.09232730873e-07, global = 4.83523293454e-20, cumulative = -1.24417789367e-19
ExecutionTime = 7.48 s  ClockTime = 36 s

volFieldValue error_velocity_norm write:
    max(region0) of error_velocity_mag = 1.27413282436e-05

volFieldValue L2_error_velocity_norm write:
    sqrt(sum(region0)) of error_velocity_mag_squ = 0.00115452585212

volFieldValue error_pressure_norm write:
    max(region0) of error_pres = 0.00093930042432

Time = 0.1725

Courant Number mean: 0.123795975559 max: 0.152696783524
GAMG:  Solving for p, Initial residual = 0.00476303135538, Final residual = 3.38773680536e-05, No Iterations 6
time step continuity errors : sum local = 1.09703187783e-07, global = -4.9221280951e-20, cumulative = -1.73639070318e-19
GAMG:  Solving for p, Initial residual = 0.00118170574458, Final residual = 8.33682583863e-06, No Iterations 6
time step continuity errors : sum local = 5.60519009339e-08, global = -1.19915321579e-20, cumulative = -1.85630602476e-19
GAMG:  Solving for p, Initial residual = 1.47602757038e-05, Final residual = 1.18289206426e-07, No Iterations 6
time step continuity errors : sum local = 1.09232722227e-07, global = 5.72896575265e-20, cumulative = -1.2834094495e-19
ExecutionTime = 7.82 s  ClockTime = 37 s

volFieldValue error_velocity_norm write:
    max(region0) of error_velocity_mag = 1.27413282436e-05

volFieldValue L2_error_velocity_norm write:
    sqrt(sum(region0)) of error_velocity_mag_squ = 0.00115452585212

volFieldValue error_pressure_norm write:
    max(region0) of error_pres = 0.00093930042432

Time = 0.18

Courant Number mean: 0.123795967126 max: 0.152696786337
GAMG:  Solving for p, Initial residual = 0.00476303155706, Final residual = 3.38773673215e-05, No Iterations 6
time step continuity errors : sum local = 1.09703179667e-07, global = -1.04386834553e-20, cumulative = -1.38779628405e-19
GAMG:  Solving for p, Initial residual = 0.00118170575004, Final residual = 8.33682557293e-06, No Iterations 6
time step continuity errors : sum local = 5.60518963353e-08, global = -5.15610136077e-20, cumulative = -1.90340642012e-19
GAMG:  Solving for p, Initial residual = 1.47602920342e-05, Final residual = 1.18289277116e-07, No Iterations 6
time step continuity errors : sum local = 1.09232713632e-07, global = 6.8075921624e-20, cumulative = -1.22264720389e-19
ExecutionTime = 8.13 s  ClockTime = 37 s

volFieldValue error_velocity_norm write:
    max(region0) of error_velocity_mag = 1.27413282436e-05

volFieldValue L2_error_velocity_norm write:
    sqrt(sum(region0)) of error_velocity_mag_squ = 0.00115452585212

volFieldValue error_pressure_norm write:
    max(region0) of error_pres = 0.00093930042432

Time = 0.1875

Courant Number mean: 0.123795958697 max: 0.152696789165
GAMG:  Solving for p, Initial residual = 0.00476303175739, Final residual = 3.38773665777e-05, No Iterations 6
time step continuity errors : sum local = 1.09703171633e-07, global = 5.10557343407e-20, cumulative = -7.12089860478e-20
GAMG:  Solving for p, Initial residual = 0.00118170575333, Final residual = 8.33682530193e-06, No Iterations 6
time step continuity errors : sum local = 5.60518917652e-08, global = -3.0371467787e-20, cumulative = -1.01580453835e-19
GAMG:  Solving for p, Initial residual = 1.47603079579e-05, Final residual = 1.18289348555e-07, No Iterations 6
time step continuity errors : sum local = 1.09232705092e-07, global = -4.09919874116e-20, cumulative = -1.42572441246e-19
ExecutionTime = 8.45 s  ClockTime = 37 s

volFieldValue error_velocity_norm write:
    max(region0) of error_velocity_mag = 1.27413282436e-05

volFieldValue L2_error_velocity_norm write:
    sqrt(sum(region0)) of error_velocity_mag_squ = 0.00115452585212

volFieldValue error_pressure_norm write:
    max(region0) of error_pres = 0.00093930042432

Time = 0.195

Courant Number mean: 0.12379595027 max: 0.152696792008
GAMG:  Solving for p, Initial residual = 0.00476303195673, Final residual = 3.38773658243e-05, No Iterations 6
time step continuity errors : sum local = 1.09703163688e-07, global = 5.35209822294e-20, cumulative = -8.90514590171e-20
GAMG:  Solving for p, Initial residual = 0.00118170575451, Final residual = 8.33682502643e-06, No Iterations 6
time step continuity errors : sum local = 5.60518872238e-08, global = 1.60764092893e-20, cumulative = -7.29750497278e-20
GAMG:  Solving for p, Initial residual = 1.47603234912e-05, Final residual = 1.182894217e-07, No Iterations 6
time step continuity errors : sum local = 1.09232696609e-07, global = 3.02877909658e-20, cumulative = -4.2687258762e-20
ExecutionTime = 8.76 s  ClockTime = 38 s

volFieldValue error_velocity_norm write:
    max(region0) of error_velocity_mag = 1.27413282436e-05

volFieldValue L2_error_velocity_norm write:
    sqrt(sum(region0)) of error_velocity_mag_squ = 0.00115452585212

volFieldValue error_pressure_norm write:
    max(region0) of error_pres = 0.00093930042432

Time = 0.2025

Courant Number mean: 0.123795941846 max: 0.152696794867
GAMG:  Solving for p, Initial residual = 0.00476303215525, Final residual = 3.38773650611e-05, No Iterations 6
time step continuity errors : sum local = 1.09703155832e-07, global = 5.67071381167e-21, cumulative = -3.70165449503e-20
GAMG:  Solving for p, Initial residual = 0.00118170575364, Final residual = 8.33682474683e-06, No Iterations 6
time step continuity errors : sum local = 5.60518827112e-08, global = 4.80819888459e-20, cumulative = 1.10654438955e-20
GAMG:  Solving for p, Initial residual = 1.47603386024e-05, Final residual = 1.18289496107e-07, No Iterations 6
time step continuity errors : sum local = 1.09232688183e-07, global = 1.9614168743e-20, cumulative = 3.06796126386e-20
ExecutionTime = 9.09 s  ClockTime = 38 s

volFieldValue error_velocity_norm write:
    max(region0) of error_velocity_mag = 1.27413282436e-05

volFieldValue L2_error_velocity_norm write:
    sqrt(sum(region0)) of error_velocity_mag_squ = 0.00115452585212

volFieldValue error_pressure_norm write:
    max(region0) of error_pres = 0.00093930042432

Time = 0.21

Courant Number mean: 0.123795933425 max: 0.152696797742
GAMG:  Solving for p, Initial residual = 0.00476303235309, Final residual = 3.38773642898e-05, No Iterations 6
time step continuity errors : sum local = 1.09703148056e-07, global = 3.14093822049e-20, cumulative = 6.20889948435e-20
GAMG:  Solving for p, Initial residual = 0.00118170575065, Final residual = 8.33682446203e-06, No Iterations 6
time step continuity errors : sum local = 5.60518782279e-08, global = 4.38458497683e-20, cumulative = 1.05934844612e-19
GAMG:  Solving for p, Initial residual = 1.47603532762e-05, Final residual = 1.18289571911e-07, No Iterations 6
time step continuity errors : sum local = 1.09232679819e-07, global = -3.09765155717e-21, cumulative = 1.02837193055e-19
ExecutionTime = 9.44 s  ClockTime = 38 s

volFieldValue error_velocity_norm write:
    max(region0) of error_velocity_mag = 1.27413282436e-05

volFieldValue L2_error_velocity_norm write:
    sqrt(sum(region0)) of error_velocity_mag_squ = 0.00115452585212

volFieldValue error_pressure_norm write:
    max(region0) of error_pres = 0.00093930042432

Time = 0.2175

Courant Number mean: 0.123795925008 max: 0.152696800639
GAMG:  Solving for p, Initial residual = 0.0047630325503, Final residual = 3.38773635097e-05, No Iterations 6
time step continuity errors : sum local = 1.09703140402e-07, global = -3.92524750307e-20, cumulative = 6.35847180239e-20
GAMG:  Solving for p, Initial residual = 0.00118170574562, Final residual = 8.33682417278e-06, No Iterations 6
time step continuity errors : sum local = 5.6051873774e-08, global = -8.28698227101e-20, cumulative = -1.92851046862e-20
GAMG:  Solving for p, Initial residual = 1.47603675036e-05, Final residual = 1.18289648575e-07, No Iterations 6
time step continuity errors : sum local = 1.09232671517e-07, global = 5.2632720588e-20, cumulative = 3.33476159018e-20
ExecutionTime = 9.83 s  ClockTime = 39 s

volFieldValue error_velocity_norm write:
    max(region0) of error_velocity_mag = 1.27413282436e-05

volFieldValue L2_error_velocity_norm write:
    sqrt(sum(region0)) of error_velocity_mag_squ = 0.00115452585212

volFieldValue error_pressure_norm write:
    max(region0) of error_pres = 0.00093930042432

Time = 0.225

Courant Number mean: 0.123795916594 max: 0.152696803558
GAMG:  Solving for p, Initial residual = 0.0047630327469, Final residual = 3.38773627215e-05, No Iterations 6
time step continuity errors : sum local = 1.09703132906e-07, global = -2.47779941181e-20, cumulative = 8.56962178374e-21
GAMG:  Solving for p, Initial residual = 0.00118170573866, Final residual = 8.33682388009e-06, No Iterations 6
time step continuity errors : sum local = 5.60518693508e-08, global = -1.85641855529e-20, cumulative = -9.99456376915e-21
GAMG:  Solving for p, Initial residual = 1.47603812731e-05, Final residual = 1.18289726826e-07, No Iterations 6
time step continuity errors : sum local = 1.09232663309e-07, global = -6.67660575369e-20, cumulative = -7.67606213061e-20
ExecutionTime = 10.19 s  ClockTime = 39 s

volFieldValue error_velocity_norm write:
    max(region0) of error_velocity_mag = 1.27413282436e-05

volFieldValue L2_error_velocity_norm write:
    sqrt(sum(region0)) of error_velocity_mag_squ = 0.00115452585212

volFieldValue error_pressure_norm write:
    max(region0) of error_pres = 0.00093930042432

Time = 0.2325

Courant Number mean: 0.123795908183 max: 0.152696806496
GAMG:  Solving for p, Initial residual = 0.00476303294323, Final residual = 3.38773619259e-05, No Iterations 6
time step continuity errors : sum local = 1.0970312553e-07, global = 7.07857632979e-20, cumulative = -5.97485800821e-21
GAMG:  Solving for p, Initial residual = 0.00118170572986, Final residual = 8.33682358368e-06, No Iterations 6
time step continuity errors : sum local = 5.60518649583e-08, global = -1.1199820695e-21, cumulative = -7.09484007771e-21
GAMG:  Solving for p, Initial residual = 1.47603945755e-05, Final residual = 1.18289806064e-07, No Iterations 6
time step continuity errors : sum local = 1.09232655168e-07, global = -5.50867042892e-20, cumulative = -6.21815443669e-20
ExecutionTime = 10.5 s  ClockTime = 39 s

volFieldValue error_velocity_norm write:
    max(region0) of error_velocity_mag = 1.27413282436e-05

volFieldValue L2_error_velocity_norm write:
    sqrt(sum(region0)) of error_velocity_mag_squ = 0.00115452585212

volFieldValue error_pressure_norm write:
    max(region0) of error_pres = 0.00093930042432

Time = 0.24

Courant Number mean: 0.123795899776 max: 0.152696809454
GAMG:  Solving for p, Initial residual = 0.00476303313888, Final residual = 3.3877361121e-05, No Iterations 6
time step continuity errors : sum local = 1.09703118231e-07, global = 8.91479980609e-21, cumulative = -5.32667445608e-20
GAMG:  Solving for p, Initial residual = 0.00118170571925, Final residual = 8.33682328413e-06, No Iterations 6
time step continuity errors : sum local = 5.60518605975e-08, global = 3.61499959646e-20, cumulative = -1.71167485962e-20
GAMG:  Solving for p, Initial residual = 1.47604074006e-05, Final residual = 1.18289886279e-07, No Iterations 6
time step continuity errors : sum local = 1.09232647093e-07, global = -1.47045921711e-20, cumulative = -3.18213407673e-20
ExecutionTime = 10.85 s  ClockTime = 40 s

volFieldValue error_velocity_norm write:
    max(region0) of error_velocity_mag = 1.27413282436e-05

volFieldValue L2_error_velocity_norm write:
    sqrt(sum(region0)) of error_velocity_mag_squ = 0.00115452585212

volFieldValue error_pressure_norm write:
    max(region0) of error_pres = 0.00093930042432

Time = 0.2475

Courant Number mean: 0.123795891372 max: 0.152696812431
GAMG:  Solving for p, Initial residual = 0.00476303333299, Final residual = 3.38773602996e-05, No Iterations 6
time step continuity errors : sum local = 1.09703111099e-07, global = -3.72651505252e-20, cumulative = -6.90864912925e-20
GAMG:  Solving for p, Initial residual = 0.00118170570687, Final residual = 8.33682298129e-06, No Iterations 6
time step continuity errors : sum local = 5.6051856269e-08, global = -3.64130952008e-20, cumulative = -1.05499586493e-19
GAMG:  Solving for p, Initial residual = 1.47604197338e-05, Final residual = 1.18289968345e-07, No Iterations 6
time step continuity errors : sum local = 1.09232639088e-07, global = -9.44582578732e-21, cumulative = -1.14945412281e-19
ExecutionTime = 11.17 s  ClockTime = 40 s

volFieldValue error_velocity_norm write:
    max(region0) of error_velocity_mag = 1.27413282436e-05

volFieldValue L2_error_velocity_norm write:
    sqrt(sum(region0)) of error_velocity_mag_squ = 0.00115452585212

volFieldValue error_pressure_norm write:
    max(region0) of error_pres = 0.00093930042432

Time = 0.255

Courant Number mean: 0.123795882972 max: 0.152696815429
GAMG:  Solving for p, Initial residual = 0.00476303352611, Final residual = 3.38773594657e-05, No Iterations 6
time step continuity errors : sum local = 1.09703104088e-07, global = -3.35093485852e-20, cumulative = -1.48454760866e-19
GAMG:  Solving for p, Initial residual = 0.0011817056927, Final residual = 8.33682267525e-06, No Iterations 6
time step continuity errors : sum local = 5.60518519735e-08, global = 9.15472699943e-20, cumulative = -5.69074908715e-20
GAMG:  Solving for p, Initial residual = 1.47604315716e-05, Final residual = 1.18290051384e-07, No Iterations 6
time step continuity errors : sum local = 1.09232631154e-07, global = 1.75367307377e-20, cumulative = -3.93707601338e-20
ExecutionTime = 11.48 s  ClockTime = 40 s

volFieldValue error_velocity_norm write:
    max(region0) of error_velocity_mag = 1.27413282436e-05

volFieldValue L2_error_velocity_norm write:
    sqrt(sum(region0)) of error_velocity_mag_squ = 0.00115452585212

volFieldValue error_pressure_norm write:
    max(region0) of error_pres = 0.00093930042432

Time = 0.2625

Courant Number mean: 0.123795874576 max: 0.152696818447
GAMG:  Solving for p, Initial residual = 0.00476303371917, Final residual = 3.38773586248e-05, No Iterations 6
time step continuity errors : sum local = 1.09703097216e-07, global = -9.49571004617e-21, cumulative = -4.886647018e-20
GAMG:  Solving for p, Initial residual = 0.00118170567676, Final residual = 8.33682236504e-06, No Iterations 6
time step continuity errors : sum local = 5.60518477121e-08, global = -5.74739074502e-20, cumulative = -1.0634037763e-19
GAMG:  Solving for p, Initial residual = 1.47604428997e-05, Final residual = 1.18290134929e-07, No Iterations 6
time step continuity errors : sum local = 1.09232623293e-07, global = -4.55008807432e-20, cumulative = -1.51841258373e-19
ExecutionTime = 11.79 s  ClockTime = 41 s

volFieldValue error_velocity_norm write:
    max(region0) of error_velocity_mag = 1.27413282436e-05

volFieldValue L2_error_velocity_norm write:
    sqrt(sum(region0)) of error_velocity_mag_squ = 0.00115452585212

volFieldValue error_pressure_norm write:
    max(region0) of error_pres = 0.00093930042432

Time = 0.27

Courant Number mean: 0.123795866184 max: 0.152696821488
GAMG:  Solving for p, Initial residual = 0.0047630339124, Final residual = 3.38773577777e-05, No Iterations 6
time step continuity errors : sum local = 1.09703090468e-07, global = -1.5518832009e-20, cumulative = -1.67360090382e-19
GAMG:  Solving for p, Initial residual = 0.00118170565916, Final residual = 8.33682205223e-06, No Iterations 6
time step continuity errors : sum local = 5.60518434855e-08, global = 6.62125031807e-20, cumulative = -1.01147587202e-19
GAMG:  Solving for p, Initial residual = 1.47604537072e-05, Final residual = 1.18290219742e-07, No Iterations 6
time step continuity errors : sum local = 1.09232615505e-07, global = 7.02386456202e-20, cumulative = -3.09089415814e-20
ExecutionTime = 12.09 s  ClockTime = 41 s

volFieldValue error_velocity_norm write:
    max(region0) of error_velocity_mag = 1.27413282436e-05

volFieldValue L2_error_velocity_norm write:
    sqrt(sum(region0)) of error_velocity_mag_squ = 0.00115452585212

volFieldValue error_pressure_norm write:
    max(region0) of error_pres = 0.00093930042432

Time = 0.2775

Courant Number mean: 0.123795857796 max: 0.15269682455
GAMG:  Solving for p, Initial residual = 0.00476303410586, Final residual = 3.3877356926e-05, No Iterations 6
time step continuity errors : sum local = 1.09703083841e-07, global = 2.29483682373e-20, cumulative = -7.96057334408e-21
GAMG:  Solving for p, Initial residual = 0.00118170563995, Final residual = 8.33682173601e-06, No Iterations 6
time step continuity errors : sum local = 5.60518392942e-08, global = -1.07653448922e-20, cumulative = -1.87259182363e-20
GAMG:  Solving for p, Initial residual = 1.47604639855e-05, Final residual = 1.18290305955e-07, No Iterations 6
time step continuity errors : sum local = 1.09232607793e-07, global = 5.63434657781e-20, cumulative = 3.76175475418e-20
ExecutionTime = 12.4 s  ClockTime = 41 s

volFieldValue error_velocity_norm write:
    max(region0) of error_velocity_mag = 1.27413282436e-05

volFieldValue L2_error_velocity_norm write:
    sqrt(sum(region0)) of error_velocity_mag_squ = 0.00115452585212

volFieldValue error_pressure_norm write:
    max(region0) of error_pres = 0.00093930042432

Time = 0.285

Courant Number mean: 0.123795849412 max: 0.152696827635
GAMG:  Solving for p, Initial residual = 0.00476303429965, Final residual = 3.38773560672e-05, No Iterations 6
time step continuity errors : sum local = 1.0970307729e-07, global = 3.32760189874e-20, cumulative = 7.08935665292e-20
GAMG:  Solving for p, Initial residual = 0.0011817056191, Final residual = 8.33682141677e-06, No Iterations 6
time step continuity errors : sum local = 5.60518351397e-08, global = -3.35004981522e-20, cumulative = 3.7393068377e-20
GAMG:  Solving for p, Initial residual = 1.47604737238e-05, Final residual = 1.18290392656e-07, No Iterations 6
time step continuity errors : sum local = 1.09232600159e-07, global = 1.01425962415e-20, cumulative = 4.75356646185e-20
ExecutionTime = 12.8 s  ClockTime = 42 s

volFieldValue error_velocity_norm write:
    max(region0) of error_velocity_mag = 1.27413282436e-05

volFieldValue L2_error_velocity_norm write:
    sqrt(sum(region0)) of error_velocity_mag_squ = 0.00115452585212

volFieldValue error_pressure_norm write:
    max(region0) of error_pres = 0.00093930042432

Time = 0.2925

Courant Number mean: 0.123795841032 max: 0.152696830743
GAMG:  Solving for p, Initial residual = 0.00476303449384, Final residual = 3.38773552028e-05, No Iterations 6
time step continuity errors : sum local = 1.0970307087e-07, global = 3.14994957047e-20, cumulative = 7.90351603232e-20
GAMG:  Solving for p, Initial residual = 0.00118170559663, Final residual = 8.33682109334e-06, No Iterations 6
time step continuity errors : sum local = 5.60518310225e-08, global = 1.40472463732e-20, cumulative = 9.30824066964e-20
GAMG:  Solving for p, Initial residual = 1.47604829159e-05, Final residual = 1.18290480461e-07, No Iterations 6
time step continuity errors : sum local = 1.09232592604e-07, global = 9.68237372442e-21, cumulative = 1.02764780421e-19
ExecutionTime = 13.18 s  ClockTime = 42 s

volFieldValue error_velocity_norm write:
    max(region0) of error_velocity_mag = 1.27413282436e-05

volFieldValue L2_error_velocity_norm write:
    sqrt(sum(region0)) of error_velocity_mag_squ = 0.00115452585212

volFieldValue error_pressure_norm write:
    max(region0) of error_pres = 0.00093930042432

Time = 0.3

Courant Number mean: 0.123795832657 max: 0.152696833875
GAMG:  Solving for p, Initial residual = 0.00476303468848, Final residual = 3.3877354333e-05, No Iterations 6
time step continuity errors : sum local = 1.09703064555e-07, global = 2.80655276928e-20, cumulative = 1.30830308114e-19
GAMG:  Solving for p, Initial residual = 0.00118170557259, Final residual = 8.3368207666e-06, No Iterations 6
time step continuity errors : sum local = 5.60518269434e-08, global = 6.59035426098e-20, cumulative = 1.96733850723e-19
GAMG:  Solving for p, Initial residual = 1.47604915552e-05, Final residual = 1.18290569254e-07, No Iterations 6
time step continuity errors : sum local = 1.09232585129e-07, global = -1.01767106379e-19, cumulative = 9.49667443449e-20
ExecutionTime = 13.59 s  ClockTime = 42 s

volFieldValue error_velocity_norm write:
    max(region0) of error_velocity_mag = 1.27413282436e-05

volFieldValue L2_error_velocity_norm write:
    sqrt(sum(region0)) of error_velocity_mag_squ = 0.00115452585212

volFieldValue error_pressure_norm write:
    max(region0) of error_pres = 0.00093930042432

End

