/*---------------------------------------------------------------------------*\
| =========                 |                                                 |
| \\      /  F ield         | OpenFOAM: The Open Source CFD Toolbox           |
|  \\    /   O peration     | Version:  2406                                  |
|   \\  /    A nd           | Website:  www.openfoam.com                      |
|    \\/     M anipulation  |                                                 |
\*---------------------------------------------------------------------------*/
Build  : _630d60de3b-20240620 OPENFOAM=2406 version=v2406
Arch   : "LSB;label=32;scalar=64"
Exec   : pimpleFoam
Date   : Sep 05 2024
Time   : 21:05:34
Host   : hakan-X556UQK
PID    : 18009
I/O    : uncollated
Case   : /home/hakan/courses/testSimulation/tgv2dTests/tgv2d_temporal/pimple/pimple_nu1/TGV_temporal
nProcs : 1
trapFpe: Floating point exception trapping enabled (FOAM_SIGFPE).
fileModificationChecking : Monitoring run-time modified files using timeStampMaster (fileModificationSkew 5, maxFileModificationPolls 20)
allowSystemOperations : Allowing user-supplied system call operations

// * * * * * * * * * * * * * * * * * * * * * * * * * * * * * * * * * * * * * //
Create time

Create mesh for time = 0


PIMPLE: Operating solver in PISO mode

Reading field p

Using #codeStream at line 19 in file "0/p"
Using #codeStream with "/home/hakan/courses/testSimulation/tgv2dTests/tgv2d_temporal/pimple/pimple_nu1/TGV_temporal/dynamicCode/platforms/linux64GccDPInt32Opt/lib/libcodeStream_537564b8bd232f4ddf4797bc6f60eef024868c2e.so"
Creating new library in "dynamicCode/_537564b8bd232f4ddf4797bc6f60eef024868c2e/platforms/linux64GccDPInt32Opt/lib/libcodeStream_537564b8bd232f4ddf4797bc6f60eef024868c2e.so"
Invoking wmake libso /home/hakan/courses/testSimulation/tgv2dTests/tgv2d_temporal/pimple/pimple_nu1/TGV_temporal/dynamicCode/_537564b8bd232f4ddf4797bc6f60eef024868c2e
wmake libso /home/hakan/courses/testSimulation/tgv2dTests/tgv2d_temporal/pimple/pimple_nu1/TGV_temporal/dynamicCode/_537564b8bd232f4ddf4797bc6f60eef024868c2e
    dep: codeStreamTemplate.C
    Ctoo: codeStreamTemplate.C
    link: /home/hakan/courses/testSimulation/tgv2dTests/tgv2d_temporal/pimple/pimple_nu1/TGV_temporal/dynamicCode/_537564b8bd232f4ddf4797bc6f60eef024868c2e/../platforms/linux64GccDPInt32Opt/lib/libcodeStream_537564b8bd232f4ddf4797bc6f60eef024868c2e.so
Reading field U

Using #codeStream at line 19 in file "0/U"
Using #codeStream with "/home/hakan/courses/testSimulation/tgv2dTests/tgv2d_temporal/pimple/pimple_nu1/TGV_temporal/dynamicCode/platforms/linux64GccDPInt32Opt/lib/libcodeStream_18dd48bdf5aea29696d9cbfe8eb27bc690b7dc03.so"
Creating new library in "dynamicCode/_18dd48bdf5aea29696d9cbfe8eb27bc690b7dc03/platforms/linux64GccDPInt32Opt/lib/libcodeStream_18dd48bdf5aea29696d9cbfe8eb27bc690b7dc03.so"
Invoking wmake libso /home/hakan/courses/testSimulation/tgv2dTests/tgv2d_temporal/pimple/pimple_nu1/TGV_temporal/dynamicCode/_18dd48bdf5aea29696d9cbfe8eb27bc690b7dc03
wmake libso /home/hakan/courses/testSimulation/tgv2dTests/tgv2d_temporal/pimple/pimple_nu1/TGV_temporal/dynamicCode/_18dd48bdf5aea29696d9cbfe8eb27bc690b7dc03
    dep: codeStreamTemplate.C
    Ctoo: codeStreamTemplate.C
    link: /home/hakan/courses/testSimulation/tgv2dTests/tgv2d_temporal/pimple/pimple_nu1/TGV_temporal/dynamicCode/_18dd48bdf5aea29696d9cbfe8eb27bc690b7dc03/../platforms/linux64GccDPInt32Opt/lib/libcodeStream_18dd48bdf5aea29696d9cbfe8eb27bc690b7dc03.so
Reading/calculating face flux field phi

Selecting incompressible transport model Newtonian
Selecting turbulence model type laminar
Selecting laminar stress model Stokes
No MRF models present

No finite volume options present
Courant Number mean: 0.247592318611 max: 0.305393450017
Courant Number mean: 0.247592318611 max: 0.305393450017

Starting time loop

Using dynamicCode for functionObject diff at line 51 in "/home/hakan/courses/testSimulation/tgv2dTests/tgv2d_temporal/pimple/pimple_nu1/TGV_temporal/system/controlDict/functions/diff"
Creating new library in "dynamicCode/diff/platforms/linux64GccDPInt32Opt/lib/libdiff_d924c92ec3fe0b16fec6b8892a9fc1c20fa93dd8.so"
Invoking wmake libso /home/hakan/courses/testSimulation/tgv2dTests/tgv2d_temporal/pimple/pimple_nu1/TGV_temporal/dynamicCode/diff
wmake libso /home/hakan/courses/testSimulation/tgv2dTests/tgv2d_temporal/pimple/pimple_nu1/TGV_temporal/dynamicCode/diff
    dep: functionObjectTemplate.C
    Ctoo: functionObjectTemplate.C
    link: /home/hakan/courses/testSimulation/tgv2dTests/tgv2d_temporal/pimple/pimple_nu1/TGV_temporal/dynamicCode/diff/../platforms/linux64GccDPInt32Opt/lib/libdiff_d924c92ec3fe0b16fec6b8892a9fc1c20fa93dd8.so
Courant Number mean: 0.247592318611 max: 0.305393450017
Time = 0.015

PIMPLE: iteration 1
DILUPBiCGStab:  Solving for Ux, Initial residual = 0.0147754017645, Final residual = 9.17208951545e-09, No Iterations 11
DILUPBiCGStab:  Solving for Uy, Initial residual = 0.0147754017645, Final residual = 9.51743897745e-09, No Iterations 11
DICPCG:  Solving for p, Initial residual = 0.536029319046, Final residual = 0.00503346175526, No Iterations 35
time step continuity errors : sum local = 4.71900152838e-08, global = 5.41863738755e-20, cumulative = 5.41863738755e-20
DICPCG:  Solving for p, Initial residual = 0.525141751142, Final residual = 0.00509558594626, No Iterations 35
time step continuity errors : sum local = 4.62380652824e-08, global = 5.53289848931e-20, cumulative = 1.09515358769e-19
DICPCG:  Solving for p, Initial residual = 0.00626036049055, Final residual = 6.16070776762e-05, No Iterations 50
time step continuity errors : sum local = 1.05227538528e-09, global = -5.12895039459e-20, cumulative = 5.82258548228e-20
DICPCG:  Solving for p, Initial residual = 0.00151147642352, Final residual = 8.93688277789e-13, No Iterations 203
time step continuity errors : sum local = 2.14740312405e-17, global = -9.28475237272e-20, cumulative = -3.46216689044e-20
ExecutionTime = 0.61 s  ClockTime = 42 s

    Reading error_velocity_mag (volScalarField)
    Reading error_velocity_mag_squ (volScalarField)
    Reading error_pres (volScalarField)
volFieldValue error_velocity_norm write:
    max(region0) of error_velocity_mag = 0.000436138851453

volFieldValue L2_error_velocity_norm write:
    sqrt(sum(region0)) of error_velocity_mag_squ = 0.0395099563306

volFieldValue error_pressure_norm write:
    max(region0) of error_pres = 0.0153909846916

Courant Number mean: 0.240382978013 max: 0.296501165501
Time = 0.03

PIMPLE: iteration 1
DILUPBiCGStab:  Solving for Ux, Initial residual = 0.0147754071287, Final residual = 9.00375698553e-09, No Iterations 11
DILUPBiCGStab:  Solving for Uy, Initial residual = 0.0147753737765, Final residual = 9.64968787309e-09, No Iterations 11
DICPCG:  Solving for p, Initial residual = 0.999801654585, Final residual = 0.00944739659941, No Iterations 35
time step continuity errors : sum local = 9.06222335973e-08, global = -4.13934752368e-20, cumulative = -7.60151441413e-20
DICPCG:  Solving for p, Initial residual = 0.998074448586, Final residual = 0.00968934948877, No Iterations 35
time step continuity errors : sum local = 8.91488640634e-08, global = 5.91796272687e-20, cumulative = -1.68355168725e-20
DICPCG:  Solving for p, Initial residual = 0.0129408469396, Final residual = 0.000125890677209, No Iterations 46
time step continuity errors : sum local = 1.63268212822e-09, global = -2.04621446692e-20, cumulative = -3.72976615417e-20
DICPCG:  Solving for p, Initial residual = 0.00308158040324, Final residual = 7.40830997197e-13, No Iterations 206
time step continuity errors : sum local = 1.96696398515e-17, global = 1.08878843131e-19, cumulative = 7.15811815892e-20
ExecutionTime = 1.23 s  ClockTime = 42 s

volFieldValue error_velocity_norm write:
    max(region0) of error_velocity_mag = 0.000436138851453

volFieldValue L2_error_velocity_norm write:
    sqrt(sum(region0)) of error_velocity_mag_squ = 0.0395099563306

volFieldValue error_pressure_norm write:
    max(region0) of error_pres = 0.0153909846916

Courant Number mean: 0.233384179789 max: 0.287868645943
Time = 0.045

PIMPLE: iteration 1
DILUPBiCGStab:  Solving for Ux, Initial residual = 0.0147754620478, Final residual = 8.98082432821e-09, No Iterations 11
DILUPBiCGStab:  Solving for Uy, Initial residual = 0.0147754451602, Final residual = 9.66853594423e-09, No Iterations 11
DICPCG:  Solving for p, Initial residual = 0.999902653471, Final residual = 0.00940937716227, No Iterations 35
time step continuity errors : sum local = 8.67256108966e-08, global = -6.3960067977e-20, cumulative = 7.62111361221e-21
DICPCG:  Solving for p, Initial residual = 0.998126214203, Final residual = 0.00968946982783, No Iterations 35
time step continuity errors : sum local = 8.48887256379e-08, global = -1.73327684858e-20, cumulative = -9.7116548736e-21
DICPCG:  Solving for p, Initial residual = 0.0130000291066, Final residual = 0.000127288333719, No Iterations 49
time step continuity errors : sum local = 1.90179901209e-09, global = -6.10949665761e-20, cumulative = -7.08066214497e-20
DICPCG:  Solving for p, Initial residual = 0.0031077748306, Final residual = 7.92620651392e-13, No Iterations 206
time step continuity errors : sum local = 1.88240770162e-17, global = 2.64197317277e-20, cumulative = -4.4386889722e-20
ExecutionTime = 1.8 s  ClockTime = 43 s

volFieldValue error_velocity_norm write:
    max(region0) of error_velocity_mag = 0.000436138851453

volFieldValue L2_error_velocity_norm write:
    sqrt(sum(region0)) of error_velocity_mag_squ = 0.0395099563306

volFieldValue error_pressure_norm write:
    max(region0) of error_pres = 0.0153909846916

Courant Number mean: 0.226589076918 max: 0.279487339233
Time = 0.06

PIMPLE: iteration 1
DILUPBiCGStab:  Solving for Ux, Initial residual = 0.0147754396816, Final residual = 8.98888856761e-09, No Iterations 11
DILUPBiCGStab:  Solving for Uy, Initial residual = 0.0147753768657, Final residual = 9.61612387933e-09, No Iterations 11
DICPCG:  Solving for p, Initial residual = 0.99970444078, Final residual = 0.00953143767567, No Iterations 35
time step continuity errors : sum local = 8.20525193521e-08, global = -1.23013576575e-19, cumulative = -1.67400466297e-19
DICPCG:  Solving for p, Initial residual = 0.997795252771, Final residual = 0.00967291969627, No Iterations 35
time step continuity errors : sum local = 7.92568309544e-08, global = 1.92940445578e-19, cumulative = 2.55399792804e-20
DICPCG:  Solving for p, Initial residual = 0.0130703880067, Final residual = 0.000130512689, No Iterations 48
time step continuity errors : sum local = 1.80016711619e-09, global = 1.19514764055e-19, cumulative = 1.45054743336e-19
DICPCG:  Solving for p, Initial residual = 0.00306563677076, Final residual = 9.77816109103e-13, No Iterations 205
time step continuity errors : sum local = 1.92052092376e-17, global = 6.17911319834e-20, cumulative = 2.06845875319e-19
ExecutionTime = 2.37 s  ClockTime = 44 s

volFieldValue error_velocity_norm write:
    max(region0) of error_velocity_mag = 0.000436138851453

volFieldValue L2_error_velocity_norm write:
    sqrt(sum(region0)) of error_velocity_mag_squ = 0.0395099563306

volFieldValue error_pressure_norm write:
    max(region0) of error_pres = 0.0153909846916

Courant Number mean: 0.219991745316 max: 0.271349943252
Time = 0.075

PIMPLE: iteration 1
DILUPBiCGStab:  Solving for Ux, Initial residual = 0.0147754449621, Final residual = 8.99365510208e-09, No Iterations 11
DILUPBiCGStab:  Solving for Uy, Initial residual = 0.014775491213, Final residual = 9.67382842449e-09, No Iterations 11
DICPCG:  Solving for p, Initial residual = 0.999706608225, Final residual = 0.00957653469298, No Iterations 35
time step continuity errors : sum local = 8.11341113686e-08, global = 3.41347121366e-20, cumulative = 2.40980587456e-19
DICPCG:  Solving for p, Initial residual = 0.997538472076, Final residual = 0.00963443310522, No Iterations 35
time step continuity errors : sum local = 7.62965035181e-08, global = 8.3641821845e-20, cumulative = 3.24622409301e-19
DICPCG:  Solving for p, Initial residual = 0.0131145773033, Final residual = 0.000124818894098, No Iterations 87
time step continuity errors : sum local = 1.35891291521e-09, global = -3.9411229673e-20, cumulative = 2.85211179628e-19
DICPCG:  Solving for p, Initial residual = 0.00327769426548, Final residual = 9.9476164028e-13, No Iterations 206
time step continuity errors : sum local = 1.85412782179e-17, global = -9.70687510376e-20, cumulative = 1.8814242859e-19
ExecutionTime = 2.94 s  ClockTime = 44 s

volFieldValue error_velocity_norm write:
    max(region0) of error_velocity_mag = 0.000436138851453

volFieldValue L2_error_velocity_norm write:
    sqrt(sum(region0)) of error_velocity_mag_squ = 0.0395099563306

volFieldValue error_pressure_norm write:
    max(region0) of error_pres = 0.0153909846916

Courant Number mean: 0.213586436237 max: 0.263449371931
Time = 0.09

PIMPLE: iteration 1
DILUPBiCGStab:  Solving for Ux, Initial residual = 0.0147754753191, Final residual = 8.97941031371e-09, No Iterations 11
DILUPBiCGStab:  Solving for Uy, Initial residual = 0.0147754529609, Final residual = 9.6312828257e-09, No Iterations 11
DICPCG:  Solving for p, Initial residual = 0.999904001955, Final residual = 0.009492236219, No Iterations 35
time step continuity errors : sum local = 7.32465425922e-08, global = 1.37043524375e-19, cumulative = 3.25185952965e-19
DICPCG:  Solving for p, Initial residual = 0.998194379864, Final residual = 0.00964717804409, No Iterations 35
time step continuity errors : sum local = 7.07272313721e-08, global = -2.68949573527e-20, cumulative = 2.98290995612e-19
DICPCG:  Solving for p, Initial residual = 0.0129858822841, Final residual = 0.000117471889339, No Iterations 49
time step continuity errors : sum local = 1.45051825548e-09, global = -8.71365485825e-20, cumulative = 2.1115444703e-19
DICPCG:  Solving for p, Initial residual = 0.00309228398592, Final residual = 7.92213748799e-13, No Iterations 206
time step continuity errors : sum local = 1.61282776895e-17, global = -1.21283028116e-20, cumulative = 1.99026144218e-19
ExecutionTime = 3.49 s  ClockTime = 45 s

volFieldValue error_velocity_norm write:
    max(region0) of error_velocity_mag = 0.000436138851453

volFieldValue L2_error_velocity_norm write:
    sqrt(sum(region0)) of error_velocity_mag_squ = 0.0395099563306

volFieldValue error_pressure_norm write:
    max(region0) of error_pres = 0.0153909846916

Courant Number mean: 0.207367566201 max: 0.255778740954
Time = 0.105

PIMPLE: iteration 1
DILUPBiCGStab:  Solving for Ux, Initial residual = 0.014775471173, Final residual = 8.98436768292e-09, No Iterations 11
DILUPBiCGStab:  Solving for Uy, Initial residual = 0.0147754192441, Final residual = 9.5873858568e-09, No Iterations 11
DICPCG:  Solving for p, Initial residual = 0.999755529141, Final residual = 0.0095089722366, No Iterations 35
time step continuity errors : sum local = 6.82207633612e-08, global = 6.67330695593e-20, cumulative = 2.65759213778e-19
DICPCG:  Solving for p, Initial residual = 0.997933242999, Final residual = 0.00968054825624, No Iterations 35
time step continuity errors : sum local = 6.62674534821e-08, global = -1.15043560494e-20, cumulative = 2.54254857728e-19
DICPCG:  Solving for p, Initial residual = 0.0130524989909, Final residual = 0.000122127194743, No Iterations 47
time step continuity errors : sum local = 1.34956178472e-09, global = -1.30816063011e-20, cumulative = 2.41173251427e-19
DICPCG:  Solving for p, Initial residual = 0.00306852758608, Final residual = 9.49505405146e-13, No Iterations 205
time step continuity errors : sum local = 1.61093875506e-17, global = 1.39379130612e-20, cumulative = 2.55111164488e-19
ExecutionTime = 4.04 s  ClockTime = 45 s

volFieldValue error_velocity_norm write:
    max(region0) of error_velocity_mag = 0.000436138851453

volFieldValue L2_error_velocity_norm write:
    sqrt(sum(region0)) of error_velocity_mag_squ = 0.0395099563306

volFieldValue error_pressure_norm write:
    max(region0) of error_pres = 0.0153909846916

Courant Number mean: 0.201329714163 max: 0.248331372735
Time = 0.12

PIMPLE: iteration 1
DILUPBiCGStab:  Solving for Ux, Initial residual = 0.0147754848138, Final residual = 8.98786422152e-09, No Iterations 11
DILUPBiCGStab:  Solving for Uy, Initial residual = 0.0147755086364, Final residual = 9.60291738211e-09, No Iterations 11
DICPCG:  Solving for p, Initial residual = 0.999789120171, Final residual = 0.00951217424611, No Iterations 35
time step continuity errors : sum local = 6.68494473568e-08, global = 1.18669019693e-19, cumulative = 3.73780184181e-19
DICPCG:  Solving for p, Initial residual = 0.997742777729, Final residual = 0.00965427200094, No Iterations 35
time step continuity errors : sum local = 6.37129170317e-08, global = 8.472016665e-20, cumulative = 4.58500350832e-19
DICPCG:  Solving for p, Initial residual = 0.0130721310335, Final residual = 0.000120288856962, No Iterations 86
time step continuity errors : sum local = 1.09674994557e-09, global = 4.31145387393e-20, cumulative = 5.01614889571e-19
DICPCG:  Solving for p, Initial residual = 0.00323915392845, Final residual = 9.56956163775e-13, No Iterations 206
time step continuity errors : sum local = 1.48756460729e-17, global = 7.50684561815e-20, cumulative = 5.76683345752e-19
ExecutionTime = 4.58 s  ClockTime = 46 s

volFieldValue error_velocity_norm write:
    max(region0) of error_velocity_mag = 0.000436138851453

volFieldValue L2_error_velocity_norm write:
    sqrt(sum(region0)) of error_velocity_mag_squ = 0.0395099563306

volFieldValue error_pressure_norm write:
    max(region0) of error_pres = 0.0153909846916

Courant Number mean: 0.195467616282 max: 0.241100774582
Time = 0.135

PIMPLE: iteration 1
DILUPBiCGStab:  Solving for Ux, Initial residual = 0.0147755023979, Final residual = 8.99241239581e-09, No Iterations 11
DILUPBiCGStab:  Solving for Uy, Initial residual = 0.0147754847386, Final residual = 9.59717934677e-09, No Iterations 11
DICPCG:  Solving for p, Initial residual = 0.999926003553, Final residual = 0.00948302750966, No Iterations 35
time step continuity errors : sum local = 6.12956965894e-08, global = 1.77250035856e-21, cumulative = 5.78455846111e-19
DICPCG:  Solving for p, Initial residual = 0.998221805016, Final residual = 0.00966575336737, No Iterations 35
time step continuity errors : sum local = 5.93616817208e-08, global = -2.61780722781e-20, cumulative = 5.52277773833e-19
DICPCG:  Solving for p, Initial residual = 0.0129954001909, Final residual = 0.000120113124138, No Iterations 49
time step continuity errors : sum local = 1.24564450224e-09, global = -5.70099637284e-20, cumulative = 4.95267810104e-19
DICPCG:  Solving for p, Initial residual = 0.00309710834571, Final residual = 7.93766473116e-13, No Iterations 206
time step continuity errors : sum local = 1.37000536417e-17, global = 3.30597634539e-21, cumulative = 4.9857378645e-19
ExecutionTime = 5.14 s  ClockTime = 47 s

volFieldValue error_velocity_norm write:
    max(region0) of error_velocity_mag = 0.000436138851453

volFieldValue L2_error_velocity_norm write:
    sqrt(sum(region0)) of error_velocity_mag_squ = 0.0395099563306

volFieldValue error_pressure_norm write:
    max(region0) of error_pres = 0.0153909846916

Courant Number mean: 0.189776160519 max: 0.234080642018
Time = 0.15

PIMPLE: iteration 1
DILUPBiCGStab:  Solving for Ux, Initial residual = 0.0147754853397, Final residual = 8.98530468168e-09, No Iterations 11
DILUPBiCGStab:  Solving for Uy, Initial residual = 0.0147754362013, Final residual = 9.54194790046e-09, No Iterations 11
DICPCG:  Solving for p, Initial residual = 0.999759654231, Final residual = 0.00951722342932, No Iterations 35
time step continuity errors : sum local = 5.72587691354e-08, global = -4.00078796036e-20, cumulative = 4.58565906846e-19
DICPCG:  Solving for p, Initial residual = 0.9979326113, Final residual = 0.00968079991136, No Iterations 35
time step continuity errors : sum local = 5.55367792063e-08, global = 9.53042788115e-20, cumulative = 5.53870185658e-19
DICPCG:  Solving for p, Initial residual = 0.0130607877284, Final residual = 0.000125106349631, No Iterations 47
time step continuity errors : sum local = 1.17018466293e-09, global = 3.48761559057e-20, cumulative = 5.88746341563e-19
DICPCG:  Solving for p, Initial residual = 0.00306936451757, Final residual = 9.61573095498e-13, No Iterations 205
time step continuity errors : sum local = 1.36897668152e-17, global = 4.31946717184e-20, cumulative = 6.31941013282e-19
ExecutionTime = 5.67 s  ClockTime = 47 s

volFieldValue error_velocity_norm write:
    max(region0) of error_velocity_mag = 0.000436138851453

volFieldValue L2_error_velocity_norm write:
    sqrt(sum(region0)) of error_velocity_mag_squ = 0.0395099563306

volFieldValue error_pressure_norm write:
    max(region0) of error_pres = 0.0153909846916

Courant Number mean: 0.184250383822 max: 0.227264859496
Time = 0.165

PIMPLE: iteration 1
DILUPBiCGStab:  Solving for Ux, Initial residual = 0.01477549306, Final residual = 8.98890618971e-09, No Iterations 11
DILUPBiCGStab:  Solving for Uy, Initial residual = 0.0147755183037, Final residual = 9.56208342814e-09, No Iterations 11
DICPCG:  Solving for p, Initial residual = 0.999785842992, Final residual = 0.00953087047205, No Iterations 35
time step continuity errors : sum local = 5.62298938348e-08, global = -3.18418465457e-20, cumulative = 6.00099166736e-19
DICPCG:  Solving for p, Initial residual = 0.997720821143, Final residual = 0.00965104331236, No Iterations 35
time step continuity errors : sum local = 5.3409470207e-08, global = 6.72742534239e-20, cumulative = 6.6737342016e-19
DICPCG:  Solving for p, Initial residual = 0.0130868414399, Final residual = 0.000124420388521, No Iterations 86
time step continuity errors : sum local = 9.50176142081e-10, global = 3.84063723768e-20, cumulative = 7.05779792537e-19
DICPCG:  Solving for p, Initial residual = 0.00325021953819, Final residual = 9.60725123156e-13, No Iterations 206
time step continuity errors : sum local = 1.36547025137e-17, global = 4.1385163469e-20, cumulative = 7.47164956006e-19
ExecutionTime = 6.23 s  ClockTime = 48 s

volFieldValue error_velocity_norm write:
    max(region0) of error_velocity_mag = 0.000436138851453

volFieldValue L2_error_velocity_norm write:
    sqrt(sum(region0)) of error_velocity_mag_squ = 0.0395099563306

volFieldValue error_pressure_norm write:
    max(region0) of error_pres = 0.0153909846916

Courant Number mean: 0.178885467131 max: 0.220647482625
Time = 0.18

PIMPLE: iteration 1
DILUPBiCGStab:  Solving for Ux, Initial residual = 0.0147755075296, Final residual = 8.99134839955e-09, No Iterations 11
DILUPBiCGStab:  Solving for Uy, Initial residual = 0.0147754907146, Final residual = 9.55409696135e-09, No Iterations 11
DICPCG:  Solving for p, Initial residual = 0.999934793218, Final residual = 0.00948892014561, No Iterations 35
time step continuity errors : sum local = 5.13656585309e-08, global = 2.83917868373e-21, cumulative = 7.5000413469e-19
DICPCG:  Solving for p, Initial residual = 0.99824487282, Final residual = 0.00966431149457, No Iterations 35
time step continuity errors : sum local = 4.97074165234e-08, global = -5.76984871881e-20, cumulative = 6.92305647501e-19
DICPCG:  Solving for p, Initial residual = 0.0129968253127, Final residual = 0.000119927608553, No Iterations 49
time step continuity errors : sum local = 1.04010602719e-09, global = 8.4363345854e-20, cumulative = 7.76668993355e-19
DICPCG:  Solving for p, Initial residual = 0.00309586004179, Final residual = 7.94264117739e-13, No Iterations 206
time step continuity errors : sum local = 1.24229302853e-17, global = 7.43515319739e-20, cumulative = 8.51020525329e-19
ExecutionTime = 6.81 s  ClockTime = 48 s

volFieldValue error_velocity_norm write:
    max(region0) of error_velocity_mag = 0.000436138851453

volFieldValue L2_error_velocity_norm write:
    sqrt(sum(region0)) of error_velocity_mag_squ = 0.0395099563306

volFieldValue error_pressure_norm write:
    max(region0) of error_pres = 0.0153909846916

Courant Number mean: 0.173676730583 max: 0.214222739263
Time = 0.195

PIMPLE: iteration 1
DILUPBiCGStab:  Solving for Ux, Initial residual = 0.014775490515, Final residual = 8.98794313192e-09, No Iterations 11
DILUPBiCGStab:  Solving for Uy, Initial residual = 0.014775445578, Final residual = 9.50433846227e-09, No Iterations 11
DICPCG:  Solving for p, Initial residual = 0.999767870269, Final residual = 0.00951838540106, No Iterations 35
time step continuity errors : sum local = 4.79490131383e-08, global = 1.57807143106e-19, cumulative = 1.00882766844e-18
DICPCG:  Solving for p, Initial residual = 0.997958138273, Final residual = 0.00968292521394, No Iterations 35
time step continuity errors : sum local = 4.65173002435e-08, global = -7.50628356281e-20, cumulative = 9.33764832807e-19
DICPCG:  Solving for p, Initial residual = 0.0130620664306, Final residual = 0.000124301181471, No Iterations 47
time step continuity errors : sum local = 9.71697736789e-10, global = 1.99397615908e-20, cumulative = 9.53704594398e-19
DICPCG:  Solving for p, Initial residual = 0.00306929889952, Final residual = 9.61548815046e-13, No Iterations 205
time step continuity errors : sum local = 1.26651727601e-17, global = 2.76691515152e-20, cumulative = 9.81373745913e-19
ExecutionTime = 7.39 s  ClockTime = 49 s

volFieldValue error_velocity_norm write:
    max(region0) of error_velocity_mag = 0.000436138851453

volFieldValue L2_error_velocity_norm write:
    sqrt(sum(region0)) of error_velocity_mag_squ = 0.0395099563306

volFieldValue error_pressure_norm write:
    max(region0) of error_pres = 0.0153909846916

Courant Number mean: 0.168619630702 max: 0.207985029692
Time = 0.21

PIMPLE: iteration 1
DILUPBiCGStab:  Solving for Ux, Initial residual = 0.0147754947525, Final residual = 8.99065363865e-09, No Iterations 11
DILUPBiCGStab:  Solving for Uy, Initial residual = 0.0147755169175, Final residual = 9.52139528034e-09, No Iterations 11
DICPCG:  Solving for p, Initial residual = 0.99979740456, Final residual = 0.00952958057284, No Iterations 35
time step continuity errors : sum local = 4.70595545624e-08, global = -1.07517675234e-20, cumulative = 9.7062197839e-19
DICPCG:  Solving for p, Initial residual = 0.997752824559, Final residual = 0.00965442462057, No Iterations 35
time step continuity errors : sum local = 4.4733679635e-08, global = -3.66473299565e-20, cumulative = 9.33974648434e-19
DICPCG:  Solving for p, Initial residual = 0.0130869669556, Final residual = 0.00012313617969, No Iterations 86
time step continuity errors : sum local = 7.87629713225e-10, global = -9.17915117737e-20, cumulative = 8.4218313666e-19
DICPCG:  Solving for p, Initial residual = 0.00324787986269, Final residual = 9.54258730168e-13, No Iterations 206
time step continuity errors : sum local = 1.2485965951e-17, global = 1.65229964901e-20, cumulative = 8.5870613315e-19
ExecutionTime = 7.95 s  ClockTime = 50 s

volFieldValue error_velocity_norm write:
    max(region0) of error_velocity_mag = 0.000436138851453

volFieldValue L2_error_velocity_norm write:
    sqrt(sum(region0)) of error_velocity_mag_squ = 0.0395099563306

volFieldValue error_pressure_norm write:
    max(region0) of error_pres = 0.0153909846916

Courant Number mean: 0.163709755934 max: 0.201928911823
Time = 0.225

PIMPLE: iteration 1
DILUPBiCGStab:  Solving for Ux, Initial residual = 0.0147755059883, Final residual = 8.99447091707e-09, No Iterations 11
DILUPBiCGStab:  Solving for Uy, Initial residual = 0.0147754907769, Final residual = 9.5140879936e-09, No Iterations 11
DICPCG:  Solving for p, Initial residual = 0.999941314213, Final residual = 0.0094907165556, No Iterations 35
time step continuity errors : sum local = 4.30261714917e-08, global = -3.34848087482e-20, cumulative = 8.25221324402e-19
DICPCG:  Solving for p, Initial residual = 0.998264540088, Final residual = 0.00966703661325, No Iterations 35
time step continuity errors : sum local = 4.16424326656e-08, global = 4.67176141373e-20, cumulative = 8.71938938539e-19
DICPCG:  Solving for p, Initial residual = 0.0129996348493, Final residual = 0.000120284726593, No Iterations 49
time step continuity errors : sum local = 8.73264578526e-10, global = 3.89038509425e-20, cumulative = 9.10842789482e-19
DICPCG:  Solving for p, Initial residual = 0.00309593371364, Final residual = 7.94604888498e-13, No Iterations 206
time step continuity errors : sum local = 1.15296801371e-17, global = 1.17669748452e-19, cumulative = 1.02851253793e-18
ExecutionTime = 8.46 s  ClockTime = 50 s

volFieldValue error_velocity_norm write:
    max(region0) of error_velocity_mag = 0.000436138851453

volFieldValue L2_error_velocity_norm write:
    sqrt(sum(region0)) of error_velocity_mag_squ = 0.0395099563306

volFieldValue error_pressure_norm write:
    max(region0) of error_pres = 0.0153909846916

Courant Number mean: 0.158942822338 max: 0.196049101503
Time = 0.24

PIMPLE: iteration 1
DILUPBiCGStab:  Solving for Ux, Initial residual = 0.0147754896538, Final residual = 8.99148422955e-09, No Iterations 11
DILUPBiCGStab:  Solving for Uy, Initial residual = 0.0147754484724, Final residual = 9.4692569457e-09, No Iterations 11
DICPCG:  Solving for p, Initial residual = 0.999772489324, Final residual = 0.00952063327711, No Iterations 35
time step continuity errors : sum local = 4.01699768623e-08, global = -1.64748296349e-20, cumulative = 1.0120377083e-18
DICPCG:  Solving for p, Initial residual = 0.997973891902, Final residual = 0.00968432638936, No Iterations 35
time step continuity errors : sum local = 3.89657202427e-08, global = 4.1920478294e-20, cumulative = 1.05395818659e-18
DICPCG:  Solving for p, Initial residual = 0.0130643040055, Final residual = 0.000124316491019, No Iterations 47
time step continuity errors : sum local = 8.14271043082e-10, global = 4.82916209064e-21, cumulative = 1.05878734868e-18
DICPCG:  Solving for p, Initial residual = 0.0030694009727, Final residual = 9.61514481254e-13, No Iterations 205
time step continuity errors : sum local = 1.15347705845e-17, global = -1.71406463473e-20, cumulative = 1.04164670234e-18
ExecutionTime = 8.99 s  ClockTime = 51 s

volFieldValue error_velocity_norm write:
    max(region0) of error_velocity_mag = 0.000436138851453

volFieldValue L2_error_velocity_norm write:
    sqrt(sum(region0)) of error_velocity_mag_squ = 0.0395099563306

volFieldValue error_pressure_norm write:
    max(region0) of error_pres = 0.0153909846916

Courant Number mean: 0.154314670813 max: 0.190340471814
Time = 0.255

PIMPLE: iteration 1
DILUPBiCGStab:  Solving for Ux, Initial residual = 0.0147754913164, Final residual = 8.99391575112e-09, No Iterations 11
DILUPBiCGStab:  Solving for Uy, Initial residual = 0.0147755114941, Final residual = 9.4850072654e-09, No Iterations 11
DICPCG:  Solving for p, Initial residual = 0.999801533366, Final residual = 0.0095320646868, No Iterations 35
time step continuity errors : sum local = 3.9424569682e-08, global = -1.85940557643e-20, cumulative = 1.02305264657e-18
DICPCG:  Solving for p, Initial residual = 0.997768082804, Final residual = 0.00965614471998, No Iterations 35
time step continuity errors : sum local = 3.74727533069e-08, global = -2.574731768e-20, cumulative = 9.97305328892e-19
DICPCG:  Solving for p, Initial residual = 0.0130896504365, Final residual = 0.000122932810251, No Iterations 86
time step continuity errors : sum local = 6.5860610261e-10, global = -2.80390298232e-20, cumulative = 9.69266299068e-19
DICPCG:  Solving for p, Initial residual = 0.00324836000272, Final residual = 9.50662958875e-13, No Iterations 206
time step continuity errors : sum local = 1.14002421821e-17, global = 1.45475696402e-22, cumulative = 9.69411774765e-19
ExecutionTime = 9.55 s  ClockTime = 51 s

volFieldValue error_velocity_norm write:
    max(region0) of error_velocity_mag = 0.000436138851453

volFieldValue L2_error_velocity_norm write:
    sqrt(sum(region0)) of error_velocity_mag_squ = 0.0395099563306

volFieldValue error_pressure_norm write:
    max(region0) of error_pres = 0.0153909846916

Courant Number mean: 0.149821263089 max: 0.18479804103
Time = 0.27

PIMPLE: iteration 1
DILUPBiCGStab:  Solving for Ux, Initial residual = 0.014775500407, Final residual = 8.99830438879e-09, No Iterations 11
DILUPBiCGStab:  Solving for Uy, Initial residual = 0.0147754865032, Final residual = 9.47798192591e-09, No Iterations 11
DICPCG:  Solving for p, Initial residual = 0.999944861752, Final residual = 0.00949288002986, No Iterations 35
time step continuity errors : sum local = 3.60420205162e-08, global = -3.26698648986e-20, cumulative = 9.36741909866e-19
DICPCG:  Solving for p, Initial residual = 0.998279634665, Final residual = 0.00966842574891, No Iterations 35
time step continuity errors : sum local = 3.48808983576e-08, global = 8.67966492109e-20, cumulative = 1.02353855908e-18
DICPCG:  Solving for p, Initial residual = 0.0130016113178, Final residual = 0.0001204904684, No Iterations 49
time step continuity errors : sum local = 7.32175229699e-10, global = -9.21362763691e-21, cumulative = 1.01432493144e-18
DICPCG:  Solving for p, Initial residual = 0.00309574408656, Final residual = 7.94793691899e-13, No Iterations 206
time step continuity errors : sum local = 1.07623864109e-17, global = 4.35246153503e-20, cumulative = 1.05784954679e-18
ExecutionTime = 10.13 s  ClockTime = 52 s

volFieldValue error_velocity_norm write:
    max(region0) of error_velocity_mag = 0.000436138851453

volFieldValue L2_error_velocity_norm write:
    sqrt(sum(region0)) of error_velocity_mag_squ = 0.0395099563306

volFieldValue error_pressure_norm write:
    max(region0) of error_pres = 0.0153909846916

Courant Number mean: 0.145458677849 max: 0.1794169721
Time = 0.285

PIMPLE: iteration 1
DILUPBiCGStab:  Solving for Ux, Initial residual = 0.0147754852602, Final residual = 8.99625735322e-09, No Iterations 11
DILUPBiCGStab:  Solving for Uy, Initial residual = 0.014775447577, Final residual = 9.43778316919e-09, No Iterations 11
DICPCG:  Solving for p, Initial residual = 0.999776007435, Final residual = 0.00952243072337, No Iterations 35
time step continuity errors : sum local = 3.36490477105e-08, global = -6.48369648578e-20, cumulative = 9.93012581933e-19
DICPCG:  Solving for p, Initial residual = 0.997988532587, Final residual = 0.00968558699918, No Iterations 35
time step continuity errors : sum local = 3.26384619472e-08, global = -2.88894225485e-20, cumulative = 9.64123159384e-19
DICPCG:  Solving for p, Initial residual = 0.0130658586884, Final residual = 0.000124174247308, No Iterations 47
time step continuity errors : sum local = 6.81117204752e-10, global = 3.84488770842e-20, cumulative = 1.00257203647e-18
DICPCG:  Solving for p, Initial residual = 0.00306943437317, Final residual = 9.60382217446e-13, No Iterations 205
time step continuity errors : sum local = 1.06904630222e-17, global = 2.89641160998e-20, cumulative = 1.03153615257e-18
ExecutionTime = 10.57 s  ClockTime = 52 s

volFieldValue error_velocity_norm write:
    max(region0) of error_velocity_mag = 0.000436138851453

volFieldValue L2_error_velocity_norm write:
    sqrt(sum(region0)) of error_velocity_mag_squ = 0.0395099563306

volFieldValue error_pressure_norm write:
    max(region0) of error_pres = 0.0153909846916

Courant Number mean: 0.141223108039 max: 0.174192571447
Time = 0.3

PIMPLE: iteration 1
DILUPBiCGStab:  Solving for Ux, Initial residual = 0.0147754851619, Final residual = 8.99843379984e-09, No Iterations 11
DILUPBiCGStab:  Solving for Uy, Initial residual = 0.0147755033634, Final residual = 9.45224151046e-09, No Iterations 11
DICPCG:  Solving for p, Initial residual = 0.999805039253, Final residual = 0.00953341179008, No Iterations 35
time step continuity errors : sum local = 3.30203123059e-08, global = 1.19311882964e-20, cumulative = 1.04346734086e-18
DICPCG:  Solving for p, Initial residual = 0.997783299053, Final residual = 0.00965785917239, No Iterations 35
time step continuity errors : sum local = 3.13882887513e-08, global = -9.26152054833e-20, cumulative = 9.50852135381e-19
DICPCG:  Solving for p, Initial residual = 0.0130913696671, Final residual = 0.000122479577292, No Iterations 86
time step continuity errors : sum local = 5.4959342416e-10, global = -2.72773394314e-20, cumulative = 9.2357479595e-19
DICPCG:  Solving for p, Initial residual = 0.00324826247341, Final residual = 9.47347260731e-13, No Iterations 206
time step continuity errors : sum local = 1.04385158831e-17, global = 3.13203000766e-20, cumulative = 9.54895096027e-19
ExecutionTime = 10.99 s  ClockTime = 53 s

volFieldValue error_velocity_norm write:
    max(region0) of error_velocity_mag = 0.000436138851453

volFieldValue L2_error_velocity_norm write:
    sqrt(sum(region0)) of error_velocity_mag_squ = 0.0395099563306

volFieldValue error_pressure_norm write:
    max(region0) of error_pres = 0.0153909846916

End

