/*---------------------------------------------------------------------------*\
| =========                 |                                                 |
| \\      /  F ield         | OpenFOAM: The Open Source CFD Toolbox           |
|  \\    /   O peration     | Version:  2406                                  |
|   \\  /    A nd           | Website:  www.openfoam.com                      |
|    \\/     M anipulation  |                                                 |
\*---------------------------------------------------------------------------*/
Build  : _630d60de3b-20240620 OPENFOAM=2406 version=v2406
Arch   : "LSB;label=32;scalar=64"
Exec   : pimpleFoam
Date   : Sep 07 2024
Time   : 22:03:57
Host   : hakan-X556UQK
PID    : 21055
I/O    : uncollated
Case   : /home/hakan/courses/testSimulation/tgv2dTests/tgv2d_temporal/pimple/pimple_nu0.0000001/TGV_temporal
nProcs : 1
trapFpe: Floating point exception trapping enabled (FOAM_SIGFPE).
fileModificationChecking : Monitoring run-time modified files using timeStampMaster (fileModificationSkew 5, maxFileModificationPolls 20)
allowSystemOperations : Allowing user-supplied system call operations

// * * * * * * * * * * * * * * * * * * * * * * * * * * * * * * * * * * * * * //
Create time

Create mesh for time = 0


PIMPLE: Operating solver in PISO mode

Reading field p

Using #codeStream at line 19 in file "0/p"
Using #codeStream with "/home/hakan/courses/testSimulation/tgv2dTests/tgv2d_temporal/pimple/pimple_nu0.0000001/TGV_temporal/dynamicCode/platforms/linux64GccDPInt32Opt/lib/libcodeStream_537564b8bd232f4ddf4797bc6f60eef024868c2e.so"
Creating new library in "dynamicCode/_537564b8bd232f4ddf4797bc6f60eef024868c2e/platforms/linux64GccDPInt32Opt/lib/libcodeStream_537564b8bd232f4ddf4797bc6f60eef024868c2e.so"
Invoking wmake libso /home/hakan/courses/testSimulation/tgv2dTests/tgv2d_temporal/pimple/pimple_nu0.0000001/TGV_temporal/dynamicCode/_537564b8bd232f4ddf4797bc6f60eef024868c2e
wmake libso /home/hakan/courses/testSimulation/tgv2dTests/tgv2d_temporal/pimple/pimple_nu0.0000001/TGV_temporal/dynamicCode/_537564b8bd232f4ddf4797bc6f60eef024868c2e
    dep: codeStreamTemplate.C
    Ctoo: codeStreamTemplate.C
    link: /home/hakan/courses/testSimulation/tgv2dTests/tgv2d_temporal/pimple/pimple_nu0.0000001/TGV_temporal/dynamicCode/_537564b8bd232f4ddf4797bc6f60eef024868c2e/../platforms/linux64GccDPInt32Opt/lib/libcodeStream_537564b8bd232f4ddf4797bc6f60eef024868c2e.so
Reading field U

Using #codeStream at line 19 in file "0/U"
Using #codeStream with "/home/hakan/courses/testSimulation/tgv2dTests/tgv2d_temporal/pimple/pimple_nu0.0000001/TGV_temporal/dynamicCode/platforms/linux64GccDPInt32Opt/lib/libcodeStream_18dd48bdf5aea29696d9cbfe8eb27bc690b7dc03.so"
Creating new library in "dynamicCode/_18dd48bdf5aea29696d9cbfe8eb27bc690b7dc03/platforms/linux64GccDPInt32Opt/lib/libcodeStream_18dd48bdf5aea29696d9cbfe8eb27bc690b7dc03.so"
Invoking wmake libso /home/hakan/courses/testSimulation/tgv2dTests/tgv2d_temporal/pimple/pimple_nu0.0000001/TGV_temporal/dynamicCode/_18dd48bdf5aea29696d9cbfe8eb27bc690b7dc03
wmake libso /home/hakan/courses/testSimulation/tgv2dTests/tgv2d_temporal/pimple/pimple_nu0.0000001/TGV_temporal/dynamicCode/_18dd48bdf5aea29696d9cbfe8eb27bc690b7dc03
    dep: codeStreamTemplate.C
    Ctoo: codeStreamTemplate.C
    link: /home/hakan/courses/testSimulation/tgv2dTests/tgv2d_temporal/pimple/pimple_nu0.0000001/TGV_temporal/dynamicCode/_18dd48bdf5aea29696d9cbfe8eb27bc690b7dc03/../platforms/linux64GccDPInt32Opt/lib/libcodeStream_18dd48bdf5aea29696d9cbfe8eb27bc690b7dc03.so
Reading/calculating face flux field phi

Selecting incompressible transport model Newtonian
Selecting turbulence model type laminar
Selecting laminar stress model Stokes
No MRF models present

No finite volume options present
Courant Number mean: 0.495184637222 max: 0.610786900035
Courant Number mean: 0.495184637222 max: 0.610786900035

Starting time loop

Using dynamicCode for functionObject diff at line 51 in "/home/hakan/courses/testSimulation/tgv2dTests/tgv2d_temporal/pimple/pimple_nu0.0000001/TGV_temporal/system/controlDict/functions/diff"
Creating new library in "dynamicCode/diff/platforms/linux64GccDPInt32Opt/lib/libdiff_d924c92ec3fe0b16fec6b8892a9fc1c20fa93dd8.so"
Invoking wmake libso /home/hakan/courses/testSimulation/tgv2dTests/tgv2d_temporal/pimple/pimple_nu0.0000001/TGV_temporal/dynamicCode/diff
wmake libso /home/hakan/courses/testSimulation/tgv2dTests/tgv2d_temporal/pimple/pimple_nu0.0000001/TGV_temporal/dynamicCode/diff
    dep: functionObjectTemplate.C
    Ctoo: functionObjectTemplate.C
    link: /home/hakan/courses/testSimulation/tgv2dTests/tgv2d_temporal/pimple/pimple_nu0.0000001/TGV_temporal/dynamicCode/diff/../platforms/linux64GccDPInt32Opt/lib/libdiff_d924c92ec3fe0b16fec6b8892a9fc1c20fa93dd8.so
Courant Number mean: 0.495184637222 max: 0.610786900035
Time = 0.03

PIMPLE: iteration 1
DILUPBiCGStab:  Solving for Ux, Initial residual = 7.09375397346e-06, Final residual = 4.84315866436e-09, No Iterations 2
DILUPBiCGStab:  Solving for Uy, Initial residual = 7.09375397359e-06, Final residual = 4.84316251566e-09, No Iterations 2
DICPCG:  Solving for p, Initial residual = 0.000904546559845, Final residual = 8.5138207677e-06, No Iterations 35
time step continuity errors : sum local = 1.26671156718e-08, global = -7.5425979958e-20, cumulative = -7.5425979958e-20
DICPCG:  Solving for p, Initial residual = 3.07244417457e-05, Final residual = 2.66690870509e-07, No Iterations 72
time step continuity errors : sum local = 3.87749298024e-10, global = -1.45030538096e-19, cumulative = -2.20456518054e-19
DICPCG:  Solving for p, Initial residual = 1.2463790404e-06, Final residual = 1.18890255263e-08, No Iterations 36
time step continuity errors : sum local = 1.86653223143e-11, global = 9.55825223533e-20, cumulative = -1.24873995701e-19
DICPCG:  Solving for p, Initial residual = 1.5180375612e-07, Final residual = 9.47202993716e-13, No Iterations 136
time step continuity errors : sum local = 1.39299994897e-15, global = 1.66106410513e-19, cumulative = 4.12324148127e-20
ExecutionTime = 0.42 s  ClockTime = 26 s

    Reading error_velocity_mag (volScalarField)
    Reading error_velocity_mag_squ (volScalarField)
    Reading error_pres (volScalarField)
volFieldValue error_velocity_norm write:
    max(region0) of error_velocity_mag = 5.10054450088e-05

volFieldValue L2_error_velocity_norm write:
    sqrt(sum(region0)) of error_velocity_mag_squ = 0.00461913533057

volFieldValue error_pressure_norm write:
    max(region0) of error_pres = 0.000903400393475

Courant Number mean: 0.495184063255 max: 0.610786371499
Time = 0.06

PIMPLE: iteration 1
DILUPBiCGStab:  Solving for Ux, Initial residual = 2.83343578161e-05, Final residual = 7.24847924886e-09, No Iterations 1
DILUPBiCGStab:  Solving for Uy, Initial residual = 2.83343569557e-05, Final residual = 7.24847624705e-09, No Iterations 1
DICPCG:  Solving for p, Initial residual = 3.63857482748e-05, Final residual = 2.85616057699e-07, No Iterations 17
time step continuity errors : sum local = 2.29654688602e-10, global = 1.25075141316e-19, cumulative = 1.66307556129e-19
DICPCG:  Solving for p, Initial residual = 1.4717435494e-06, Final residual = 1.41012757017e-08, No Iterations 69
time step continuity errors : sum local = 1.03036487739e-11, global = 1.46926783541e-19, cumulative = 3.1323433967e-19
DICPCG:  Solving for p, Initial residual = 7.42647402719e-08, Final residual = 6.71732570792e-10, No Iterations 38
time step continuity errors : sum local = 4.98463625134e-13, global = -6.58800811576e-20, cumulative = 2.47354258512e-19
DICPCG:  Solving for p, Initial residual = 1.06337281995e-08, Final residual = 8.55553710324e-13, No Iterations 112
time step continuity errors : sum local = 6.28815461243e-16, global = -2.32823014944e-19, cumulative = 1.45312435686e-20
ExecutionTime = 0.88 s  ClockTime = 26 s

volFieldValue error_velocity_norm write:
    max(region0) of error_velocity_mag = 5.10054450088e-05

volFieldValue L2_error_velocity_norm write:
    sqrt(sum(region0)) of error_velocity_mag_squ = 0.00461913533057

volFieldValue error_pressure_norm write:
    max(region0) of error_pres = 0.000903400393475

Courant Number mean: 0.495183490864 max: 0.610785842038
Time = 0.09

PIMPLE: iteration 1
DILUPBiCGStab:  Solving for Ux, Initial residual = 2.83249450679e-05, Final residual = 7.30718126534e-09, No Iterations 1
DILUPBiCGStab:  Solving for Uy, Initial residual = 2.83249439561e-05, Final residual = 7.30716868808e-09, No Iterations 1
DICPCG:  Solving for p, Initial residual = 3.68962243995e-05, Final residual = 3.24405049097e-07, No Iterations 18
time step continuity errors : sum local = 2.67093781351e-10, global = -6.31713638856e-20, cumulative = -4.8640120317e-20
DICPCG:  Solving for p, Initial residual = 1.56207412623e-06, Final residual = 1.45060322612e-08, No Iterations 75
time step continuity errors : sum local = 1.05525019704e-11, global = 4.08426799426e-19, cumulative = 3.59786679109e-19
DICPCG:  Solving for p, Initial residual = 8.95023176616e-08, Final residual = 7.82006360311e-10, No Iterations 33
time step continuity errors : sum local = 6.04064896219e-13, global = 1.4518680469e-19, cumulative = 5.04973483799e-19
DICPCG:  Solving for p, Initial residual = 1.2813555347e-08, Final residual = 7.98514799431e-13, No Iterations 113
time step continuity errors : sum local = 5.88342966534e-16, global = -1.81126087218e-19, cumulative = 3.23847396581e-19
ExecutionTime = 1.22 s  ClockTime = 27 s

volFieldValue error_velocity_norm write:
    max(region0) of error_velocity_mag = 5.10054450088e-05

volFieldValue L2_error_velocity_norm write:
    sqrt(sum(region0)) of error_velocity_mag_squ = 0.00461913533057

volFieldValue error_pressure_norm write:
    max(region0) of error_pres = 0.000903400393475

Courant Number mean: 0.495182060979 max: 0.610784521894
Time = 0.12

PIMPLE: iteration 1
DILUPBiCGStab:  Solving for Ux, Initial residual = 2.83084158157e-05, Final residual = 7.48444025263e-09, No Iterations 1
DILUPBiCGStab:  Solving for Uy, Initial residual = 2.83084174615e-05, Final residual = 7.48443826402e-09, No Iterations 1
DICPCG:  Solving for p, Initial residual = 3.76775921065e-05, Final residual = 3.17768774024e-07, No Iterations 20
time step continuity errors : sum local = 2.69563990158e-10, global = 3.0276496017e-19, cumulative = 6.26612356751e-19
DICPCG:  Solving for p, Initial residual = 1.64886561198e-06, Final residual = 1.45506780573e-08, No Iterations 76
time step continuity errors : sum local = 1.05947470802e-11, global = -1.08116722811e-19, cumulative = 5.1849563394e-19
DICPCG:  Solving for p, Initial residual = 9.96587854979e-08, Final residual = 9.33703991337e-10, No Iterations 34
time step continuity errors : sum local = 7.1199869522e-13, global = -2.41441428581e-19, cumulative = 2.77054205359e-19
DICPCG:  Solving for p, Initial residual = 1.44260594101e-08, Final residual = 8.75542339688e-13, No Iterations 113
time step continuity errors : sum local = 6.44484178467e-16, global = -2.61536116485e-19, cumulative = 1.55180888741e-20
ExecutionTime = 1.57 s  ClockTime = 27 s

volFieldValue error_velocity_norm write:
    max(region0) of error_velocity_mag = 5.10054450088e-05

volFieldValue L2_error_velocity_norm write:
    sqrt(sum(region0)) of error_velocity_mag_squ = 0.00461913533057

volFieldValue error_pressure_norm write:
    max(region0) of error_pres = 0.000903400393475

Courant Number mean: 0.495180061498 max: 0.610782709951
Time = 0.15

PIMPLE: iteration 1
DILUPBiCGStab:  Solving for Ux, Initial residual = 2.82782085772e-05, Final residual = 7.6578539322e-09, No Iterations 1
DILUPBiCGStab:  Solving for Uy, Initial residual = 2.82782096092e-05, Final residual = 7.65783252673e-09, No Iterations 1
DICPCG:  Solving for p, Initial residual = 3.85346270259e-05, Final residual = 3.13001424901e-07, No Iterations 21
time step continuity errors : sum local = 2.7272224371e-10, global = -2.53741451511e-19, cumulative = -2.38223362637e-19
DICPCG:  Solving for p, Initial residual = 1.73568746424e-06, Final residual = 1.63586116061e-08, No Iterations 77
time step continuity errors : sum local = 1.18902456345e-11, global = -1.41531977598e-19, cumulative = -3.79755340235e-19
DICPCG:  Solving for p, Initial residual = 1.13108228958e-07, Final residual = 1.12547145167e-09, No Iterations 36
time step continuity errors : sum local = 8.50517884415e-13, global = -3.23945076486e-19, cumulative = -7.03700416722e-19
DICPCG:  Solving for p, Initial residual = 1.59653681099e-08, Final residual = 9.94079933416e-13, No Iterations 113
time step continuity errors : sum local = 7.30058134886e-16, global = -5.44271613255e-19, cumulative = -1.24797202998e-18
ExecutionTime = 1.93 s  ClockTime = 27 s

volFieldValue error_velocity_norm write:
    max(region0) of error_velocity_mag = 5.10054450088e-05

volFieldValue L2_error_velocity_norm write:
    sqrt(sum(region0)) of error_velocity_mag_squ = 0.00461913533057

volFieldValue error_pressure_norm write:
    max(region0) of error_pres = 0.000903400393475

Courant Number mean: 0.495177493855 max: 0.610780417295
Time = 0.18

PIMPLE: iteration 1
DILUPBiCGStab:  Solving for Ux, Initial residual = 2.82307991272e-05, Final residual = 7.82293355057e-09, No Iterations 1
DILUPBiCGStab:  Solving for Uy, Initial residual = 2.82307994747e-05, Final residual = 7.82289459821e-09, No Iterations 1
DICPCG:  Solving for p, Initial residual = 3.94744153284e-05, Final residual = 3.68759726025e-07, No Iterations 21
time step continuity errors : sum local = 3.20369493562e-10, global = 2.31333004082e-19, cumulative = -1.0166390259e-18
DICPCG:  Solving for p, Initial residual = 1.85503886544e-06, Final residual = 1.74619138574e-08, No Iterations 78
time step continuity errors : sum local = 1.27163768562e-11, global = -2.04160477439e-19, cumulative = -1.22079950333e-18
DICPCG:  Solving for p, Initial residual = 1.31114805023e-07, Final residual = 1.20409471014e-09, No Iterations 37
time step continuity errors : sum local = 9.10485056377e-13, global = -2.7757248718e-19, cumulative = -1.49837199051e-18
DICPCG:  Solving for p, Initial residual = 1.81848734388e-08, Final residual = 8.4807239444e-13, No Iterations 114
time step continuity errors : sum local = 6.24690928767e-16, global = -2.83462102652e-19, cumulative = -1.78183409317e-18
ExecutionTime = 2.28 s  ClockTime = 28 s

volFieldValue error_velocity_norm write:
    max(region0) of error_velocity_mag = 5.10054450088e-05

volFieldValue L2_error_velocity_norm write:
    sqrt(sum(region0)) of error_velocity_mag_squ = 0.00461913533057

volFieldValue error_pressure_norm write:
    max(region0) of error_pres = 0.000903400393475

Courant Number mean: 0.495174359924 max: 0.610777654788
Time = 0.21

PIMPLE: iteration 1
DILUPBiCGStab:  Solving for Ux, Initial residual = 2.81806113083e-05, Final residual = 7.98004877478e-09, No Iterations 1
DILUPBiCGStab:  Solving for Uy, Initial residual = 2.81806108259e-05, Final residual = 7.97999757146e-09, No Iterations 1
DICPCG:  Solving for p, Initial residual = 4.04793117804e-05, Final residual = 3.73415360924e-07, No Iterations 25
time step continuity errors : sum local = 3.29461034658e-10, global = -2.50362045586e-21, cumulative = -1.78433771362e-18
DICPCG:  Solving for p, Initial residual = 1.86950740284e-06, Final residual = 1.78186534297e-08, No Iterations 78
time step continuity errors : sum local = 1.29673464912e-11, global = -1.03309704187e-19, cumulative = -1.88764741781e-18
DICPCG:  Solving for p, Initial residual = 1.45112794766e-07, Final residual = 1.42543106173e-09, No Iterations 39
time step continuity errors : sum local = 1.10028277019e-12, global = -2.63765745618e-19, cumulative = -2.15141316343e-18
DICPCG:  Solving for p, Initial residual = 2.02473270132e-08, Final residual = 7.64815297104e-13, No Iterations 115
time step continuity errors : sum local = 5.65371466153e-16, global = -4.05675281435e-19, cumulative = -2.55708844486e-18
ExecutionTime = 2.63 s  ClockTime = 28 s

volFieldValue error_velocity_norm write:
    max(region0) of error_velocity_mag = 5.10054450088e-05

volFieldValue L2_error_velocity_norm write:
    sqrt(sum(region0)) of error_velocity_mag_squ = 0.00461913533057

volFieldValue error_pressure_norm write:
    max(region0) of error_pres = 0.000903400393475

Courant Number mean: 0.49517066201 max: 0.610774432567
Time = 0.24

PIMPLE: iteration 1
DILUPBiCGStab:  Solving for Ux, Initial residual = 2.81230044275e-05, Final residual = 8.12997158797e-09, No Iterations 1
DILUPBiCGStab:  Solving for Uy, Initial residual = 2.81230063045e-05, Final residual = 8.12991417347e-09, No Iterations 1
DICPCG:  Solving for p, Initial residual = 4.15250469969e-05, Final residual = 3.69782469587e-07, No Iterations 26
time step continuity errors : sum local = 3.3195799797e-10, global = -2.17833914903e-20, cumulative = -2.57887183635e-18
DICPCG:  Solving for p, Initial residual = 1.97578089028e-06, Final residual = 1.89770459951e-08, No Iterations 78
time step continuity errors : sum local = 1.38319320325e-11, global = -3.79408004117e-19, cumulative = -2.95827984047e-18
DICPCG:  Solving for p, Initial residual = 1.59672588324e-07, Final residual = 1.478757491e-09, No Iterations 39
time step continuity errors : sum local = 1.13304063894e-12, global = -3.19058614589e-19, cumulative = -3.27733845506e-18
DICPCG:  Solving for p, Initial residual = 2.20739770863e-08, Final residual = 8.298632296e-13, No Iterations 115
time step continuity errors : sum local = 6.11041083749e-16, global = -4.41203863399e-19, cumulative = -3.71854231846e-18
ExecutionTime = 3 s  ClockTime = 28 s

volFieldValue error_velocity_norm write:
    max(region0) of error_velocity_mag = 5.10054450088e-05

volFieldValue L2_error_velocity_norm write:
    sqrt(sum(region0)) of error_velocity_mag_squ = 0.00461913533057

volFieldValue error_pressure_norm write:
    max(region0) of error_pres = 0.000903400393475

Courant Number mean: 0.495166402821 max: 0.610770762422
Time = 0.27

PIMPLE: iteration 1
DILUPBiCGStab:  Solving for Ux, Initial residual = 2.80540325765e-05, Final residual = 8.27361817634e-09, No Iterations 1
DILUPBiCGStab:  Solving for Uy, Initial residual = 2.80540341532e-05, Final residual = 8.27356197277e-09, No Iterations 1
DICPCG:  Solving for p, Initial residual = 4.25983931591e-05, Final residual = 4.00540061998e-07, No Iterations 26
time step continuity errors : sum local = 3.58794545429e-10, global = -4.81891696798e-19, cumulative = -4.20043401526e-18
DICPCG:  Solving for p, Initial residual = 2.10776308954e-06, Final residual = 2.09069682442e-08, No Iterations 80
time step continuity errors : sum local = 1.52558665587e-11, global = -1.27715291723e-19, cumulative = -4.32814930698e-18
DICPCG:  Solving for p, Initial residual = 1.75685639054e-07, Final residual = 1.61793325758e-09, No Iterations 39
time step continuity errors : sum local = 1.23654783778e-12, global = -2.00386403833e-19, cumulative = -4.52853571081e-18
DICPCG:  Solving for p, Initial residual = 2.40414575947e-08, Final residual = 9.50077532891e-13, No Iterations 115
time step continuity errors : sum local = 6.98162116357e-16, global = -2.6826527472e-19, cumulative = -4.79680098553e-18
ExecutionTime = 3.35 s  ClockTime = 29 s

volFieldValue error_velocity_norm write:
    max(region0) of error_velocity_mag = 5.10054450088e-05

volFieldValue L2_error_velocity_norm write:
    sqrt(sum(region0)) of error_velocity_mag_squ = 0.00461913533057

volFieldValue error_pressure_norm write:
    max(region0) of error_pres = 0.000903400393475

Courant Number mean: 0.49516158542 max: 0.610766701503
Time = 0.3

PIMPLE: iteration 1
DILUPBiCGStab:  Solving for Ux, Initial residual = 2.79809342569e-05, Final residual = 8.41199831942e-09, No Iterations 1
DILUPBiCGStab:  Solving for Uy, Initial residual = 2.79809353999e-05, Final residual = 8.41195126392e-09, No Iterations 1
DICPCG:  Solving for p, Initial residual = 4.36831127321e-05, Final residual = 4.27926054433e-07, No Iterations 26
time step continuity errors : sum local = 3.82254225617e-10, global = -1.6681706621e-19, cumulative = -4.96361805174e-18
DICPCG:  Solving for p, Initial residual = 2.25453037265e-06, Final residual = 1.99939926832e-08, No Iterations 85
time step continuity errors : sum local = 1.45447389586e-11, global = -5.54096760535e-19, cumulative = -5.51771481228e-18
DICPCG:  Solving for p, Initial residual = 1.90548284397e-07, Final residual = 1.78899939899e-09, No Iterations 30
time step continuity errors : sum local = 1.36478978625e-12, global = -5.92011181208e-19, cumulative = -6.10972599348e-18
DICPCG:  Solving for p, Initial residual = 2.57768418303e-08, Final residual = 9.90905778632e-13, No Iterations 119
time step continuity errors : sum local = 7.25374078937e-16, global = -4.53709707312e-21, cumulative = -6.11426309056e-18
ExecutionTime = 3.7 s  ClockTime = 29 s

volFieldValue error_velocity_norm write:
    max(region0) of error_velocity_mag = 5.10054450088e-05

volFieldValue L2_error_velocity_norm write:
    sqrt(sum(region0)) of error_velocity_mag_squ = 0.00461913533057

volFieldValue error_pressure_norm write:
    max(region0) of error_pres = 0.000903400393475

End

