/*---------------------------------------------------------------------------*\
| =========                 |                                                 |
| \\      /  F ield         | OpenFOAM: The Open Source CFD Toolbox           |
|  \\    /   O peration     | Version:  2406                                  |
|   \\  /    A nd           | Website:  www.openfoam.com                      |
|    \\/     M anipulation  |                                                 |
\*---------------------------------------------------------------------------*/
Build  : _630d60de3b-20240620 OPENFOAM=2406 version=v2406
Arch   : "LSB;label=32;scalar=64"
Exec   : pimpleFoam
Date   : Sep 05 2024
Time   : 21:12:43
Host   : hakan-X556UQK
PID    : 31636
I/O    : uncollated
Case   : /home/hakan/courses/testSimulation/tgv2dTests/tgv2d_temporal/pimple/pimple_nu1/TGV_temporal
nProcs : 1
trapFpe: Floating point exception trapping enabled (FOAM_SIGFPE).
fileModificationChecking : Monitoring run-time modified files using timeStampMaster (fileModificationSkew 5, maxFileModificationPolls 20)
allowSystemOperations : Allowing user-supplied system call operations

// * * * * * * * * * * * * * * * * * * * * * * * * * * * * * * * * * * * * * //
Create time

Create mesh for time = 0


PIMPLE: Operating solver in PISO mode

Reading field p

Using #codeStream at line 19 in file "0/p"
Using #codeStream with "/home/hakan/courses/testSimulation/tgv2dTests/tgv2d_temporal/pimple/pimple_nu1/TGV_temporal/dynamicCode/platforms/linux64GccDPInt32Opt/lib/libcodeStream_537564b8bd232f4ddf4797bc6f60eef024868c2e.so"
Creating new library in "dynamicCode/_537564b8bd232f4ddf4797bc6f60eef024868c2e/platforms/linux64GccDPInt32Opt/lib/libcodeStream_537564b8bd232f4ddf4797bc6f60eef024868c2e.so"
Invoking wmake libso /home/hakan/courses/testSimulation/tgv2dTests/tgv2d_temporal/pimple/pimple_nu1/TGV_temporal/dynamicCode/_537564b8bd232f4ddf4797bc6f60eef024868c2e
wmake libso /home/hakan/courses/testSimulation/tgv2dTests/tgv2d_temporal/pimple/pimple_nu1/TGV_temporal/dynamicCode/_537564b8bd232f4ddf4797bc6f60eef024868c2e
    dep: codeStreamTemplate.C
    Ctoo: codeStreamTemplate.C
    link: /home/hakan/courses/testSimulation/tgv2dTests/tgv2d_temporal/pimple/pimple_nu1/TGV_temporal/dynamicCode/_537564b8bd232f4ddf4797bc6f60eef024868c2e/../platforms/linux64GccDPInt32Opt/lib/libcodeStream_537564b8bd232f4ddf4797bc6f60eef024868c2e.so
Reading field U

Using #codeStream at line 19 in file "0/U"
Using #codeStream with "/home/hakan/courses/testSimulation/tgv2dTests/tgv2d_temporal/pimple/pimple_nu1/TGV_temporal/dynamicCode/platforms/linux64GccDPInt32Opt/lib/libcodeStream_18dd48bdf5aea29696d9cbfe8eb27bc690b7dc03.so"
Creating new library in "dynamicCode/_18dd48bdf5aea29696d9cbfe8eb27bc690b7dc03/platforms/linux64GccDPInt32Opt/lib/libcodeStream_18dd48bdf5aea29696d9cbfe8eb27bc690b7dc03.so"
Invoking wmake libso /home/hakan/courses/testSimulation/tgv2dTests/tgv2d_temporal/pimple/pimple_nu1/TGV_temporal/dynamicCode/_18dd48bdf5aea29696d9cbfe8eb27bc690b7dc03
wmake libso /home/hakan/courses/testSimulation/tgv2dTests/tgv2d_temporal/pimple/pimple_nu1/TGV_temporal/dynamicCode/_18dd48bdf5aea29696d9cbfe8eb27bc690b7dc03
    dep: codeStreamTemplate.C
    Ctoo: codeStreamTemplate.C
    link: /home/hakan/courses/testSimulation/tgv2dTests/tgv2d_temporal/pimple/pimple_nu1/TGV_temporal/dynamicCode/_18dd48bdf5aea29696d9cbfe8eb27bc690b7dc03/../platforms/linux64GccDPInt32Opt/lib/libcodeStream_18dd48bdf5aea29696d9cbfe8eb27bc690b7dc03.so
Reading/calculating face flux field phi

Selecting incompressible transport model Newtonian
Selecting turbulence model type laminar
Selecting laminar stress model Stokes
No MRF models present

No finite volume options present
Courant Number mean: 0.0618980796527 max: 0.0763483625043
Courant Number mean: 0.0618980796527 max: 0.0763483625043

Starting time loop

Using dynamicCode for functionObject diff at line 51 in "/home/hakan/courses/testSimulation/tgv2dTests/tgv2d_temporal/pimple/pimple_nu1/TGV_temporal/system/controlDict/functions/diff"
Creating new library in "dynamicCode/diff/platforms/linux64GccDPInt32Opt/lib/libdiff_d924c92ec3fe0b16fec6b8892a9fc1c20fa93dd8.so"
Invoking wmake libso /home/hakan/courses/testSimulation/tgv2dTests/tgv2d_temporal/pimple/pimple_nu1/TGV_temporal/dynamicCode/diff
wmake libso /home/hakan/courses/testSimulation/tgv2dTests/tgv2d_temporal/pimple/pimple_nu1/TGV_temporal/dynamicCode/diff
    dep: functionObjectTemplate.C
    Ctoo: functionObjectTemplate.C
    link: /home/hakan/courses/testSimulation/tgv2dTests/tgv2d_temporal/pimple/pimple_nu1/TGV_temporal/dynamicCode/diff/../platforms/linux64GccDPInt32Opt/lib/libdiff_d924c92ec3fe0b16fec6b8892a9fc1c20fa93dd8.so
Courant Number mean: 0.0618980796527 max: 0.0763483625043
Time = 0.00375

PIMPLE: iteration 1
DILUPBiCGStab:  Solving for Ux, Initial residual = 0.00373524272508, Final residual = 5.65944353329e-09, No Iterations 5
DILUPBiCGStab:  Solving for Uy, Initial residual = 0.00373524272508, Final residual = 5.69728705916e-09, No Iterations 5
DICPCG:  Solving for p, Initial residual = 0.0261768480774, Final residual = 0.000246317167882, No Iterations 35
time step continuity errors : sum local = 7.73783501844e-10, global = 2.58255792683e-20, cumulative = 2.58255792683e-20
DICPCG:  Solving for p, Initial residual = 0.0225639559762, Final residual = 0.000219058348952, No Iterations 35
time step continuity errors : sum local = 6.80670211341e-10, global = 6.58837422803e-21, cumulative = 3.24139534964e-20
DICPCG:  Solving for p, Initial residual = 0.000391610760129, Final residual = 3.3686720317e-06, No Iterations 84
time step continuity errors : sum local = 1.05550369317e-11, global = 3.77899807515e-20, cumulative = 7.02039342479e-20
DICPCG:  Solving for p, Initial residual = 8.87317381603e-05, Final residual = 8.58076018414e-13, No Iterations 186
time step continuity errors : sum local = 5.14841536588e-18, global = -1.26776536263e-20, cumulative = 5.75262806216e-20
ExecutionTime = 0.82 s  ClockTime = 58 s

    Reading error_velocity_mag (volScalarField)
    Reading error_velocity_mag_squ (volScalarField)
    Reading error_pres (volScalarField)
volFieldValue error_velocity_norm write:
    max(region0) of error_velocity_mag = 2.93064214083e-05

volFieldValue L2_error_velocity_norm write:
    sqrt(sum(region0)) of error_velocity_mag_squ = 0.00265213402398

volFieldValue error_pressure_norm write:
    max(region0) of error_pres = 0.00385375883412

Courant Number mean: 0.0614373936583 max: 0.0757801288513
Time = 0.0075

PIMPLE: iteration 1
DILUPBiCGStab:  Solving for Ux, Initial residual = 0.00374456300353, Final residual = 9.20948357299e-09, No Iterations 4
DILUPBiCGStab:  Solving for Uy, Initial residual = 0.00374456297125, Final residual = 9.22217801799e-09, No Iterations 4
DICPCG:  Solving for p, Initial residual = 0.0381686462588, Final residual = 0.00035963966654, No Iterations 35
time step continuity errors : sum local = 1.03652284377e-09, global = 2.31609232036e-20, cumulative = 8.06872038252e-20
DICPCG:  Solving for p, Initial residual = 0.030891017927, Final residual = 0.000299949858738, No Iterations 35
time step continuity errors : sum local = 8.53407504693e-10, global = 4.12295410797e-20, cumulative = 1.21916744905e-19
DICPCG:  Solving for p, Initial residual = 0.00052517930379, Final residual = 4.36394636819e-06, No Iterations 84
time step continuity errors : sum local = 1.2592814303e-11, global = -3.33391106847e-20, cumulative = 8.85776342202e-20
DICPCG:  Solving for p, Initial residual = 0.000113478003397, Final residual = 8.69728090388e-13, No Iterations 187
time step continuity errors : sum local = 5.01324485017e-18, global = -1.04081095838e-21, cumulative = 8.75368232619e-20
ExecutionTime = 1.5 s  ClockTime = 59 s

volFieldValue error_velocity_norm write:
    max(region0) of error_velocity_mag = 2.93064214083e-05

volFieldValue L2_error_velocity_norm write:
    sqrt(sum(region0)) of error_velocity_mag_squ = 0.00265213402398

volFieldValue error_pressure_norm write:
    max(region0) of error_pres = 0.00385375883412

Courant Number mean: 0.0609789992742 max: 0.075214721643
Time = 0.01125

PIMPLE: iteration 1
DILUPBiCGStab:  Solving for Ux, Initial residual = 0.00374770222653, Final residual = 9.21840150714e-09, No Iterations 4
DILUPBiCGStab:  Solving for Uy, Initial residual = 0.00374770218901, Final residual = 9.23077255904e-09, No Iterations 4
DICPCG:  Solving for p, Initial residual = 0.0394252494863, Final residual = 0.000371566664985, No Iterations 35
time step continuity errors : sum local = 1.05405700274e-09, global = 2.96120905766e-20, cumulative = 1.17148913838e-19
DICPCG:  Solving for p, Initial residual = 0.0319158966489, Final residual = 0.000309895551497, No Iterations 35
time step continuity errors : sum local = 8.67632739949e-10, global = 1.84404476363e-20, cumulative = 1.35589361475e-19
DICPCG:  Solving for p, Initial residual = 0.000542121232833, Final residual = 4.50224236275e-06, No Iterations 84
time step continuity errors : sum local = 1.27982912602e-11, global = -1.28012905753e-20, cumulative = 1.22788070899e-19
DICPCG:  Solving for p, Initial residual = 0.00011707567165, Final residual = 8.98325333269e-13, No Iterations 187
time step continuity errors : sum local = 5.13134143915e-18, global = 2.3224618239e-20, cumulative = 1.46012689138e-19
ExecutionTime = 2.11 s  ClockTime = 59 s

volFieldValue error_velocity_norm write:
    max(region0) of error_velocity_mag = 2.93064214083e-05

volFieldValue L2_error_velocity_norm write:
    sqrt(sum(region0)) of error_velocity_mag_squ = 0.00265213402398

volFieldValue error_pressure_norm write:
    max(region0) of error_pres = 0.00385375883412

Courant Number mean: 0.0605236450887 max: 0.0746530643197
Time = 0.015

PIMPLE: iteration 1
DILUPBiCGStab:  Solving for Ux, Initial residual = 0.0037487590316, Final residual = 9.22226418369e-09, No Iterations 4
DILUPBiCGStab:  Solving for Uy, Initial residual = 0.00374875899314, Final residual = 9.23455013458e-09, No Iterations 4
DICPCG:  Solving for p, Initial residual = 0.0394612930703, Final residual = 0.000371922020387, No Iterations 35
time step continuity errors : sum local = 1.03929140681e-09, global = -5.85306856106e-21, cumulative = 1.40159620577e-19
DICPCG:  Solving for p, Initial residual = 0.0319452878051, Final residual = 0.000310182319401, No Iterations 35
time step continuity errors : sum local = 8.55447897516e-10, global = 5.59042818969e-21, cumulative = 1.45750048767e-19
DICPCG:  Solving for p, Initial residual = 0.000542631532007, Final residual = 4.50499142875e-06, No Iterations 84
time step continuity errors : sum local = 1.26150855315e-11, global = 6.22578079125e-21, cumulative = 1.51975829558e-19
DICPCG:  Solving for p, Initial residual = 0.000117174036752, Final residual = 8.99228600865e-13, No Iterations 187
time step continuity errors : sum local = 5.00203143968e-18, global = 4.02236467299e-21, cumulative = 1.55998194231e-19
ExecutionTime = 2.76 s  ClockTime = 60 s

volFieldValue error_velocity_norm write:
    max(region0) of error_velocity_mag = 2.93064214083e-05

volFieldValue L2_error_velocity_norm write:
    sqrt(sum(region0)) of error_velocity_mag_squ = 0.00265213402398

volFieldValue error_pressure_norm write:
    max(region0) of error_pres = 0.00385375883412

Courant Number mean: 0.0600715642218 max: 0.0740954444478
Time = 0.01875

PIMPLE: iteration 1
DILUPBiCGStab:  Solving for Ux, Initial residual = 0.00374911489488, Final residual = 9.22436339389e-09, No Iterations 4
DILUPBiCGStab:  Solving for Uy, Initial residual = 0.00374911485706, Final residual = 9.23657806828e-09, No Iterations 4
DICPCG:  Solving for p, Initial residual = 0.0393929579908, Final residual = 0.000371278100418, No Iterations 35
time step continuity errors : sum local = 1.02208346792e-09, global = -2.86066046985e-21, cumulative = 1.53137533761e-19
DICPCG:  Solving for p, Initial residual = 0.0318895391481, Final residual = 0.000309644946111, No Iterations 35
time step continuity errors : sum local = 8.41294177418e-10, global = -2.66684352968e-21, cumulative = 1.50470690232e-19
DICPCG:  Solving for p, Initial residual = 0.000541724801113, Final residual = 4.49609292973e-06, No Iterations 84
time step continuity errors : sum local = 1.24026772676e-11, global = 1.29563126934e-20, cumulative = 1.63427002925e-19
DICPCG:  Solving for p, Initial residual = 0.000116977535799, Final residual = 8.97831451524e-13, No Iterations 187
time step continuity errors : sum local = 5.00217729093e-18, global = 5.24563504109e-21, cumulative = 1.68672637966e-19
ExecutionTime = 3.43 s  ClockTime = 61 s

volFieldValue error_velocity_norm write:
    max(region0) of error_velocity_mag = 2.93064214083e-05

volFieldValue L2_error_velocity_norm write:
    sqrt(sum(region0)) of error_velocity_mag_squ = 0.00265213402398

volFieldValue error_pressure_norm write:
    max(region0) of error_pres = 0.00385375883412

Courant Number mean: 0.0596228177079 max: 0.0735419373172
Time = 0.0225

PIMPLE: iteration 1
DILUPBiCGStab:  Solving for Ux, Initial residual = 0.0037492347846, Final residual = 9.22582809444e-09, No Iterations 4
DILUPBiCGStab:  Solving for Uy, Initial residual = 0.00374923474742, Final residual = 9.23795773918e-09, No Iterations 4
DICPCG:  Solving for p, Initial residual = 0.0393746610319, Final residual = 0.000371103869491, No Iterations 35
time step continuity errors : sum local = 1.00640958516e-09, global = 4.92999291172e-21, cumulative = 1.73602630878e-19
DICPCG:  Solving for p, Initial residual = 0.0318746165323, Final residual = 0.000309503444047, No Iterations 35
time step continuity errors : sum local = 8.28405575212e-10, global = 4.52315271172e-21, cumulative = 1.7812578359e-19
DICPCG:  Solving for p, Initial residual = 0.000541486616647, Final residual = 4.4928318482e-06, No Iterations 84
time step continuity errors : sum local = 1.22092027675e-11, global = -1.30990110461e-20, cumulative = 1.65026772544e-19
DICPCG:  Solving for p, Initial residual = 0.000116926654799, Final residual = 8.97390487703e-13, No Iterations 187
time step continuity errors : sum local = 4.87156899553e-18, global = 5.99500319285e-21, cumulative = 1.71021775736e-19
ExecutionTime = 4.07 s  ClockTime = 61 s

volFieldValue error_velocity_norm write:
    max(region0) of error_velocity_mag = 2.93064214083e-05

volFieldValue L2_error_velocity_norm write:
    sqrt(sum(region0)) of error_velocity_mag_squ = 0.00265213402398

volFieldValue error_pressure_norm write:
    max(region0) of error_pres = 0.00385375883412

Courant Number mean: 0.0591774092074 max: 0.0729925474455
Time = 0.02625

PIMPLE: iteration 1
DILUPBiCGStab:  Solving for Ux, Initial residual = 0.00374927521799, Final residual = 9.22704579133e-09, No Iterations 4
DILUPBiCGStab:  Solving for Uy, Initial residual = 0.00374927518129, Final residual = 9.23908648239e-09, No Iterations 4
DICPCG:  Solving for p, Initial residual = 0.0393751340703, Final residual = 0.000371107642963, No Iterations 35
time step continuity errors : sum local = 9.91439611964e-10, global = 1.27022319868e-20, cumulative = 1.83724007723e-19
DICPCG:  Solving for p, Initial residual = 0.0318750063851, Final residual = 0.000309510483541, No Iterations 35
time step continuity errors : sum local = 8.16093309162e-10, global = -3.0163710472e-20, cumulative = 1.53560297251e-19
DICPCG:  Solving for p, Initial residual = 0.0005415006364, Final residual = 4.49169201848e-06, No Iterations 84
time step continuity errors : sum local = 1.20244178425e-11, global = 7.61551391745e-22, cumulative = 1.54321848643e-19
DICPCG:  Solving for p, Initial residual = 0.000116929790192, Final residual = 8.97413220539e-13, No Iterations 187
time step continuity errors : sum local = 4.81755763284e-18, global = 2.25036538459e-20, cumulative = 1.76825502489e-19
ExecutionTime = 4.72 s  ClockTime = 62 s

volFieldValue error_velocity_norm write:
    max(region0) of error_velocity_mag = 2.93064214083e-05

volFieldValue L2_error_velocity_norm write:
    sqrt(sum(region0)) of error_velocity_mag_squ = 0.00265213402398

volFieldValue error_pressure_norm write:
    max(region0) of error_pres = 0.00385375883412

Courant Number mean: 0.0587353233322 max: 0.0724472558532
Time = 0.03

PIMPLE: iteration 1
DILUPBiCGStab:  Solving for Ux, Initial residual = 0.00374928889468, Final residual = 9.22815022104e-09, No Iterations 4
DILUPBiCGStab:  Solving for Uy, Initial residual = 0.00374928885839, Final residual = 9.24010266024e-09, No Iterations 4
DICPCG:  Solving for p, Initial residual = 0.03937674168, Final residual = 0.000371122413272, No Iterations 35
time step continuity errors : sum local = 9.76719793132e-10, global = 3.38939369863e-20, cumulative = 2.10719439475e-19
DICPCG:  Solving for p, Initial residual = 0.0318763222695, Final residual = 0.000309526474572, No Iterations 35
time step continuity errors : sum local = 8.03985933491e-10, global = -2.48164067574e-20, cumulative = 1.85903032718e-19
DICPCG:  Solving for p, Initial residual = 0.000541530357396, Final residual = 4.49069281192e-06, No Iterations 84
time step continuity errors : sum local = 1.18427930648e-11, global = 2.12865233857e-20, cumulative = 2.07189556103e-19
DICPCG:  Solving for p, Initial residual = 0.00011693609366, Final residual = 8.97468027622e-13, No Iterations 187
time step continuity errors : sum local = 4.76693002788e-18, global = -1.51773053578e-20, cumulative = 1.92012250746e-19
ExecutionTime = 5.36 s  ClockTime = 63 s

volFieldValue error_velocity_norm write:
    max(region0) of error_velocity_mag = 2.93064214083e-05

volFieldValue L2_error_velocity_norm write:
    sqrt(sum(region0)) of error_velocity_mag_squ = 0.00265213402398

volFieldValue error_pressure_norm write:
    max(region0) of error_pres = 0.00385375883412

Courant Number mean: 0.0582965384522 max: 0.0719060358613
Time = 0.03375

PIMPLE: iteration 1
DILUPBiCGStab:  Solving for Ux, Initial residual = 0.00374929356068, Final residual = 9.22918660634e-09, No Iterations 4
DILUPBiCGStab:  Solving for Uy, Initial residual = 0.00374929352476, Final residual = 9.24105203199e-09, No Iterations 4
DICPCG:  Solving for p, Initial residual = 0.0393772376281, Final residual = 0.000371126673178, No Iterations 35
time step continuity errors : sum local = 9.62191727117e-10, global = -6.55488967071e-21, cumulative = 1.85457361075e-19
DICPCG:  Solving for p, Initial residual = 0.0318767316006, Final residual = 0.000309533730208, No Iterations 35
time step continuity errors : sum local = 7.92036367499e-10, global = -4.21193396038e-20, cumulative = 1.43338021471e-19
DICPCG:  Solving for p, Initial residual = 0.000541545298656, Final residual = 4.4895827551e-06, No Iterations 84
time step continuity errors : sum local = 1.16636207738e-11, global = 2.49342591341e-20, cumulative = 1.68272280605e-19
DICPCG:  Solving for p, Initial residual = 0.000116939174257, Final residual = 8.97495628544e-13, No Iterations 187
time step continuity errors : sum local = 4.76015361839e-18, global = 1.32508583357e-20, cumulative = 1.81523138941e-19
ExecutionTime = 5.99 s  ClockTime = 63 s

volFieldValue error_velocity_norm write:
    max(region0) of error_velocity_mag = 2.93064214083e-05

volFieldValue L2_error_velocity_norm write:
    sqrt(sum(region0)) of error_velocity_mag_squ = 0.00265213402398

volFieldValue error_pressure_norm write:
    max(region0) of error_pres = 0.00385375883412

Courant Number mean: 0.0578610309743 max: 0.0713688583698
Time = 0.0375

PIMPLE: iteration 1
DILUPBiCGStab:  Solving for Ux, Initial residual = 0.00374929519146, Final residual = 9.23017131123e-09, No Iterations 4
DILUPBiCGStab:  Solving for Uy, Initial residual = 0.00374929515589, Final residual = 9.24195015633e-09, No Iterations 4
DICPCG:  Solving for p, Initial residual = 0.0393773126528, Final residual = 0.000371126937849, No Iterations 35
time step continuity errors : sum local = 9.47869795384e-10, global = -1.13134525863e-20, cumulative = 1.70209686355e-19
DICPCG:  Solving for p, Initial residual = 0.0318767977893, Final residual = 0.000309537659465, No Iterations 35
time step continuity errors : sum local = 7.8025627743e-10, global = -7.08584650794e-21, cumulative = 1.63123839847e-19
DICPCG:  Solving for p, Initial residual = 0.000541554563066, Final residual = 4.48844122052e-06, No Iterations 84
time step continuity errors : sum local = 1.14870774525e-11, global = -7.40652256847e-21, cumulative = 1.55717317278e-19
DICPCG:  Solving for p, Initial residual = 0.000116941064654, Final residual = 8.97516425429e-13, No Iterations 187
time step continuity errors : sum local = 4.68237982071e-18, global = -3.34379149765e-20, cumulative = 1.22279402302e-19
ExecutionTime = 6.63 s  ClockTime = 64 s

volFieldValue error_velocity_norm write:
    max(region0) of error_velocity_mag = 2.93064214083e-05

volFieldValue L2_error_velocity_norm write:
    sqrt(sum(region0)) of error_velocity_mag_squ = 0.00265213402398

volFieldValue error_pressure_norm write:
    max(region0) of error_pres = 0.00385375883412

Courant Number mean: 0.0574287767719 max: 0.0708356936203
Time = 0.04125

PIMPLE: iteration 1
DILUPBiCGStab:  Solving for Ux, Initial residual = 0.00374929579892, Final residual = 9.23111124544e-09, No Iterations 4
DILUPBiCGStab:  Solving for Uy, Initial residual = 0.0037492957637, Final residual = 9.24280351165e-09, No Iterations 4
DICPCG:  Solving for p, Initial residual = 0.0393773336762, Final residual = 0.000371126662627, No Iterations 35
time step continuity errors : sum local = 9.33759732979e-10, global = -1.95038526212e-20, cumulative = 1.0277554968e-19
DICPCG:  Solving for p, Initial residual = 0.031876819795, Final residual = 0.000309541121532, No Iterations 35
time step continuity errors : sum local = 7.68650276905e-10, global = 1.19946687816e-20, cumulative = 1.14770218462e-19
DICPCG:  Solving for p, Initial residual = 0.000541563194143, Final residual = 4.48731074218e-06, No Iterations 84
time step continuity errors : sum local = 1.13132334471e-11, global = 1.51413622979e-20, cumulative = 1.2991158076e-19
DICPCG:  Solving for p, Initial residual = 0.000116942846471, Final residual = 8.97537502958e-13, No Iterations 187
time step continuity errors : sum local = 4.66054388234e-18, global = 1.90831138907e-20, cumulative = 1.48994694651e-19
ExecutionTime = 7.26 s  ClockTime = 65 s

volFieldValue error_velocity_norm write:
    max(region0) of error_velocity_mag = 2.93064214083e-05

volFieldValue L2_error_velocity_norm write:
    sqrt(sum(region0)) of error_velocity_mag_squ = 0.00265213402398

volFieldValue error_pressure_norm write:
    max(region0) of error_pres = 0.00385375883412

Courant Number mean: 0.0569997516612 max: 0.0703065117841
Time = 0.045

PIMPLE: iteration 1
DILUPBiCGStab:  Solving for Ux, Initial residual = 0.00374929606047, Final residual = 9.23200945763e-09, No Iterations 4
DILUPBiCGStab:  Solving for Uy, Initial residual = 0.00374929602558, Final residual = 9.24362403031e-09, No Iterations 4
DICPCG:  Solving for p, Initial residual = 0.0393773629072, Final residual = 0.000371126450505, No Iterations 35
time step continuity errors : sum local = 9.19859873404e-10, global = 2.03859164451e-21, cumulative = 1.51033286295e-19
DICPCG:  Solving for p, Initial residual = 0.0318768483746, Final residual = 0.00030954458924, No Iterations 35
time step continuity errors : sum local = 7.57216924328e-10, global = -1.74594025935e-20, cumulative = 1.33573883702e-19
DICPCG:  Solving for p, Initial residual = 0.000541572282971, Final residual = 4.48620011422e-06, No Iterations 84
time step continuity errors : sum local = 1.11420687473e-11, global = -7.86663270197e-21, cumulative = 1.25707251e-19
DICPCG:  Solving for p, Initial residual = 0.000116944659819, Final residual = 8.97554616637e-13, No Iterations 187
time step continuity errors : sum local = 4.6263225447e-18, global = 3.12025626495e-20, cumulative = 1.56909813649e-19
ExecutionTime = 7.85 s  ClockTime = 65 s

volFieldValue error_velocity_norm write:
    max(region0) of error_velocity_mag = 2.93064214083e-05

volFieldValue L2_error_velocity_norm write:
    sqrt(sum(region0)) of error_velocity_mag_squ = 0.00265213402398

volFieldValue error_pressure_norm write:
    max(region0) of error_pres = 0.00385375883412

Courant Number mean: 0.0565739315598 max: 0.0697812831575
Time = 0.04875

PIMPLE: iteration 1
DILUPBiCGStab:  Solving for Ux, Initial residual = 0.00374929620422, Final residual = 9.23287110355e-09, No Iterations 4
DILUPBiCGStab:  Solving for Uy, Initial residual = 0.00374929616964, Final residual = 9.24440622661e-09, No Iterations 4
DICPCG:  Solving for p, Initial residual = 0.0393773961758, Final residual = 0.000371126324848, No Iterations 35
time step continuity errors : sum local = 9.0616714232e-10, global = 2.01443084238e-20, cumulative = 1.77054122073e-19
DICPCG:  Solving for p, Initial residual = 0.0318768800969, Final residual = 0.000309548020529, No Iterations 35
time step continuity errors : sum local = 7.45953552326e-10, global = 2.60875863435e-20, cumulative = 2.03141708416e-19
DICPCG:  Solving for p, Initial residual = 0.000541581696625, Final residual = 4.48510478924e-06, No Iterations 84
time step continuity errors : sum local = 1.09735305808e-11, global = -2.43352059582e-20, cumulative = 1.78806502458e-19
DICPCG:  Solving for p, Initial residual = 0.000116946512823, Final residual = 8.9762978401e-13, No Iterations 187
time step continuity errors : sum local = 4.59313398249e-18, global = -1.76067710584e-20, cumulative = 1.611997314e-19
ExecutionTime = 8.47 s  ClockTime = 66 s

volFieldValue error_velocity_norm write:
    max(region0) of error_velocity_mag = 2.93064214083e-05

volFieldValue L2_error_velocity_norm write:
    sqrt(sum(region0)) of error_velocity_mag_squ = 0.00265213402398

volFieldValue error_pressure_norm write:
    max(region0) of error_pres = 0.00385375883412

Courant Number mean: 0.0561512925388 max: 0.0692599782261
Time = 0.0525

PIMPLE: iteration 1
DILUPBiCGStab:  Solving for Ux, Initial residual = 0.00374929630701, Final residual = 9.23370032581e-09, No Iterations 4
DILUPBiCGStab:  Solving for Uy, Initial residual = 0.00374929627273, Final residual = 9.24515019647e-09, No Iterations 4
DICPCG:  Solving for p, Initial residual = 0.0393774295609, Final residual = 0.000371126234548, No Iterations 35
time step continuity errors : sum local = 8.92678326306e-10, global = 2.65999670144e-20, cumulative = 1.87799698414e-19
DICPCG:  Solving for p, Initial residual = 0.0318769117746, Final residual = 0.000309551396183, No Iterations 35
time step continuity errors : sum local = 7.3485759013e-10, global = -1.56514690738e-20, cumulative = 1.7214822934e-19
DICPCG:  Solving for p, Initial residual = 0.000541591122943, Final residual = 4.48402520915e-06, No Iterations 84
time step continuity errors : sum local = 1.08075786371e-11, global = -1.40725201041e-20, cumulative = 1.58075709236e-19
DICPCG:  Solving for p, Initial residual = 0.000116948395623, Final residual = 8.97593547993e-13, No Iterations 187
time step continuity errors : sum local = 4.53411466019e-18, global = -2.23245134415e-20, cumulative = 1.35751195795e-19
ExecutionTime = 9.1 s  ClockTime = 67 s

volFieldValue error_velocity_norm write:
    max(region0) of error_velocity_mag = 2.93064214083e-05

volFieldValue L2_error_velocity_norm write:
    sqrt(sum(region0)) of error_velocity_mag_squ = 0.00265213402398

volFieldValue error_pressure_norm write:
    max(region0) of error_pres = 0.00385375883412

Courant Number mean: 0.055731810839 max: 0.0687425676848
Time = 0.05625

PIMPLE: iteration 1
DILUPBiCGStab:  Solving for Ux, Initial residual = 0.00374929639474, Final residual = 9.23449260037e-09, No Iterations 4
DILUPBiCGStab:  Solving for Uy, Initial residual = 0.00374929636075, Final residual = 9.24585732092e-09, No Iterations 4
DICPCG:  Solving for p, Initial residual = 0.0393774632398, Final residual = 0.000371126112163, No Iterations 35
time step continuity errors : sum local = 8.7939023404e-10, global = 1.42731162754e-20, cumulative = 1.5002431207e-19
DICPCG:  Solving for p, Initial residual = 0.03187694316, Final residual = 0.000309554776681, No Iterations 35
time step continuity errors : sum local = 7.23926689923e-10, global = 3.17690001904e-22, cumulative = 1.50342002072e-19
DICPCG:  Solving for p, Initial residual = 0.000541600591878, Final residual = 4.48295959846e-06, No Iterations 84
time step continuity errors : sum local = 1.06441689525e-11, global = -1.01121316764e-20, cumulative = 1.40229870396e-19
DICPCG:  Solving for p, Initial residual = 0.000116950296759, Final residual = 8.97614262142e-13, No Iterations 187
time step continuity errors : sum local = 4.47741738385e-18, global = 3.1374524491e-21, cumulative = 1.43367322845e-19
ExecutionTime = 9.74 s  ClockTime = 67 s

volFieldValue error_velocity_norm write:
    max(region0) of error_velocity_mag = 2.93064214083e-05

volFieldValue L2_error_velocity_norm write:
    sqrt(sum(region0)) of error_velocity_mag_squ = 0.00265213402398

volFieldValue error_pressure_norm write:
    max(region0) of error_pres = 0.00385375883412

Courant Number mean: 0.0553154628758 max: 0.0682290224438
Time = 0.06

PIMPLE: iteration 1
DILUPBiCGStab:  Solving for Ux, Initial residual = 0.00374929647617, Final residual = 9.23524902115e-09, No Iterations 4
DILUPBiCGStab:  Solving for Uy, Initial residual = 0.00374929644246, Final residual = 9.24652975757e-09, No Iterations 4
DICPCG:  Solving for p, Initial residual = 0.0393774975969, Final residual = 0.000371125987156, No Iterations 35
time step continuity errors : sum local = 8.66299944751e-10, global = -4.62875211217e-20, cumulative = 9.70798017232e-20
DICPCG:  Solving for p, Initial residual = 0.0318769746897, Final residual = 0.000309558150506, No Iterations 35
time step continuity errors : sum local = 7.13158372601e-10, global = 1.2301060024e-20, cumulative = 1.09380861747e-19
DICPCG:  Solving for p, Initial residual = 0.000541610109191, Final residual = 4.4819082136e-06, No Iterations 84
time step continuity errors : sum local = 1.04832626088e-11, global = -2.0061261805e-20, cumulative = 8.93195999422e-20
DICPCG:  Solving for p, Initial residual = 0.000116952218911, Final residual = 8.97633405966e-13, No Iterations 187
time step continuity errors : sum local = 4.47115839186e-18, global = -1.20508374736e-20, cumulative = 7.72687624686e-20
ExecutionTime = 10.38 s  ClockTime = 68 s

volFieldValue error_velocity_norm write:
    max(region0) of error_velocity_mag = 2.93064214083e-05

volFieldValue L2_error_velocity_norm write:
    sqrt(sum(region0)) of error_velocity_mag_squ = 0.00265213402398

volFieldValue error_pressure_norm write:
    max(region0) of error_pres = 0.00385375883412

Courant Number mean: 0.0549022252399 max: 0.0677193136295
Time = 0.06375

PIMPLE: iteration 1
DILUPBiCGStab:  Solving for Ux, Initial residual = 0.00374929655428, Final residual = 9.23597155968e-09, No Iterations 4
DILUPBiCGStab:  Solving for Uy, Initial residual = 0.00374929652085, Final residual = 9.24716881539e-09, No Iterations 4
DICPCG:  Solving for p, Initial residual = 0.0393775322629, Final residual = 0.00037112584215, No Iterations 35
time step continuity errors : sum local = 8.53404474602e-10, global = 1.19844951837e-20, cumulative = 8.92532576523e-20
DICPCG:  Solving for p, Initial residual = 0.0318770069583, Final residual = 0.00030956147751, No Iterations 35
time step continuity errors : sum local = 7.0255012968e-10, global = 1.42118279696e-21, cumulative = 9.06744404493e-20
DICPCG:  Solving for p, Initial residual = 0.00054161965755, Final residual = 4.48086991747e-06, No Iterations 84
time step continuity errors : sum local = 1.03248179987e-11, global = 3.04352673757e-20, cumulative = 1.21109707825e-19
DICPCG:  Solving for p, Initial residual = 0.000116954156412, Final residual = 8.97653081494e-13, No Iterations 187
time step continuity errors : sum local = 4.39281979556e-18, global = -1.54445885944e-20, cumulative = 1.05665119231e-19
ExecutionTime = 11.07 s  ClockTime = 69 s

volFieldValue error_velocity_norm write:
    max(region0) of error_velocity_mag = 2.93064214083e-05

volFieldValue L2_error_velocity_norm write:
    sqrt(sum(region0)) of error_velocity_mag_squ = 0.00265213402398

volFieldValue error_pressure_norm write:
    max(region0) of error_pres = 0.00385375883412

Courant Number mean: 0.0544920746963 max: 0.0672134125832
Time = 0.0675

PIMPLE: iteration 1
DILUPBiCGStab:  Solving for Ux, Initial residual = 0.0037492966301, Final residual = 9.23666084179e-09, No Iterations 4
DILUPBiCGStab:  Solving for Uy, Initial residual = 0.00374929659695, Final residual = 9.24777574444e-09, No Iterations 4
DICPCG:  Solving for p, Initial residual = 0.0393775672941, Final residual = 0.000371125703542, No Iterations 35
time step continuity errors : sum local = 8.40700984005e-10, global = 2.06308858081e-20, cumulative = 1.26296005039e-19
DICPCG:  Solving for p, Initial residual = 0.0318770393773, Final residual = 0.000309564857285, No Iterations 35
time step continuity errors : sum local = 6.92099801434e-10, global = 1.83709924802e-20, cumulative = 1.44666997519e-19
DICPCG:  Solving for p, Initial residual = 0.000541629204519, Final residual = 4.47984463692e-06, No Iterations 84
time step continuity errors : sum local = 1.01687971288e-11, global = 1.00528249013e-20, cumulative = 1.5471982242e-19
DICPCG:  Solving for p, Initial residual = 0.000116956122809, Final residual = 8.97673027673e-13, No Iterations 187
time step continuity errors : sum local = 4.29489469521e-18, global = -2.47061899733e-21, cumulative = 1.52249203423e-19
ExecutionTime = 11.73 s  ClockTime = 69 s

volFieldValue error_velocity_norm write:
    max(region0) of error_velocity_mag = 2.93064214083e-05

volFieldValue L2_error_velocity_norm write:
    sqrt(sum(region0)) of error_velocity_mag_squ = 0.00265213402398

volFieldValue error_pressure_norm write:
    max(region0) of error_pres = 0.00385375883412

Courant Number mean: 0.0540849881837 max: 0.0667112908605
Time = 0.07125

PIMPLE: iteration 1
DILUPBiCGStab:  Solving for Ux, Initial residual = 0.00374929670402, Final residual = 9.23731817966e-09, No Iterations 4
DILUPBiCGStab:  Solving for Uy, Initial residual = 0.00374929667113, Final residual = 9.24835154049e-09, No Iterations 4
DICPCG:  Solving for p, Initial residual = 0.0393776035769, Final residual = 0.000371125606628, No Iterations 35
time step continuity errors : sum local = 8.28186692272e-10, global = 1.51620410706e-20, cumulative = 1.67411244494e-19
DICPCG:  Solving for p, Initial residual = 0.0318770719415, Final residual = 0.000309568271331, No Iterations 35
time step continuity errors : sum local = 6.81804996143e-10, global = 3.27408380799e-20, cumulative = 2.00152082573e-19
DICPCG:  Solving for p, Initial residual = 0.000541638785474, Final residual = 4.47883223491e-06, No Iterations 84
time step continuity errors : sum local = 1.00151619621e-11, global = 1.84982872864e-20, cumulative = 2.1865036986e-19
DICPCG:  Solving for p, Initial residual = 0.000116958094412, Final residual = 8.97691153022e-13, No Iterations 187
time step continuity errors : sum local = 4.2330291241e-18, global = 2.23933081302e-20, cumulative = 2.4104367799e-19
ExecutionTime = 12.4 s  ClockTime = 70 s

volFieldValue error_velocity_norm write:
    max(region0) of error_velocity_mag = 2.93064214083e-05

volFieldValue L2_error_velocity_norm write:
    sqrt(sum(region0)) of error_velocity_mag_squ = 0.00265213402398

volFieldValue error_pressure_norm write:
    max(region0) of error_pres = 0.00385375883412

Courant Number mean: 0.0536809428127 max: 0.0662129202292
Time = 0.075

PIMPLE: iteration 1
DILUPBiCGStab:  Solving for Ux, Initial residual = 0.00374929677619, Final residual = 9.23794444075e-09, No Iterations 4
DILUPBiCGStab:  Solving for Uy, Initial residual = 0.00374929674356, Final residual = 9.24889725168e-09, No Iterations 4
DICPCG:  Solving for p, Initial residual = 0.0393776403803, Final residual = 0.00037112544392, No Iterations 35
time step continuity errors : sum local = 8.1585854809e-10, global = 7.09749884473e-21, cumulative = 2.48141176835e-19
DICPCG:  Solving for p, Initial residual = 0.0318771047933, Final residual = 0.00030957178935, No Iterations 35
time step continuity errors : sum local = 6.71663546018e-10, global = 1.76794942567e-20, cumulative = 2.65820671091e-19
DICPCG:  Solving for p, Initial residual = 0.000541648466808, Final residual = 4.47783246774e-06, No Iterations 84
time step continuity errors : sum local = 9.86387530849e-12, global = -8.74367513871e-21, cumulative = 2.57076995953e-19
DICPCG:  Solving for p, Initial residual = 0.000116960075284, Final residual = 8.97712137143e-13, No Iterations 187
time step continuity errors : sum local = 4.2282295919e-18, global = 1.61002569964e-20, cumulative = 2.73177252949e-19
ExecutionTime = 13.08 s  ClockTime = 71 s

volFieldValue error_velocity_norm write:
    max(region0) of error_velocity_mag = 2.93064214083e-05

volFieldValue L2_error_velocity_norm write:
    sqrt(sum(region0)) of error_velocity_mag_squ = 0.00265213402398

volFieldValue error_pressure_norm write:
    max(region0) of error_pres = 0.00385375883412

Courant Number mean: 0.0532799158651 max: 0.0657182726678
Time = 0.07875

PIMPLE: iteration 1
DILUPBiCGStab:  Solving for Ux, Initial residual = 0.00374929684669, Final residual = 9.23854173606e-09, No Iterations 4
DILUPBiCGStab:  Solving for Uy, Initial residual = 0.00374929681431, Final residual = 9.24941425716e-09, No Iterations 4
DICPCG:  Solving for p, Initial residual = 0.0393776775692, Final residual = 0.000371125337138, No Iterations 35
time step continuity errors : sum local = 8.03714036795e-10, global = 1.8282854299e-20, cumulative = 2.91460107248e-19
DICPCG:  Solving for p, Initial residual = 0.0318771381382, Final residual = 0.000309575277357, No Iterations 35
time step continuity errors : sum local = 6.61672881816e-10, global = 1.28388196887e-20, cumulative = 3.04298926937e-19
DICPCG:  Solving for p, Initial residual = 0.000541658326099, Final residual = 4.47684662083e-06, No Iterations 84
time step continuity errors : sum local = 9.71490347314e-12, global = -6.42684083635e-21, cumulative = 2.97872086101e-19
DICPCG:  Solving for p, Initial residual = 0.000116962075414, Final residual = 8.97733146773e-13, No Iterations 187
time step continuity errors : sum local = 4.16823983877e-18, global = -8.7850872959e-21, cumulative = 2.89086998805e-19
ExecutionTime = 13.74 s  ClockTime = 72 s

volFieldValue error_velocity_norm write:
    max(region0) of error_velocity_mag = 2.93064214083e-05

volFieldValue L2_error_velocity_norm write:
    sqrt(sum(region0)) of error_velocity_mag_squ = 0.00265213402398

volFieldValue error_pressure_norm write:
    max(region0) of error_pres = 0.00385375883412

Courant Number mean: 0.0528818847924 max: 0.0652273203643
Time = 0.0825

PIMPLE: iteration 1
DILUPBiCGStab:  Solving for Ux, Initial residual = 0.00374929691556, Final residual = 9.23911024934e-09, No Iterations 4
DILUPBiCGStab:  Solving for Uy, Initial residual = 0.00374929688343, Final residual = 9.24990314763e-09, No Iterations 4
DICPCG:  Solving for p, Initial residual = 0.0393777151467, Final residual = 0.000371125132341, No Iterations 35
time step continuity errors : sum local = 7.91750112957e-10, global = 3.30590199471e-20, cumulative = 3.22146018752e-19
DICPCG:  Solving for p, Initial residual = 0.0318771716585, Final residual = 0.00030957874194, No Iterations 35
time step continuity errors : sum local = 6.51830777201e-10, global = -1.08731482579e-20, cumulative = 3.11272870494e-19
DICPCG:  Solving for p, Initial residual = 0.000541668367693, Final residual = 4.4758736718e-06, No Iterations 84
time step continuity errors : sum local = 9.56820855008e-12, global = 1.2463128496e-20, cumulative = 3.2373599899e-19
DICPCG:  Solving for p, Initial residual = 0.000116964099476, Final residual = 8.97750441369e-13, No Iterations 187
time step continuity errors : sum local = 4.11749714896e-18, global = 1.46074501484e-20, cumulative = 3.38343449138e-19
ExecutionTime = 14.39 s  ClockTime = 72 s

volFieldValue error_velocity_norm write:
    max(region0) of error_velocity_mag = 2.93064214083e-05

volFieldValue L2_error_velocity_norm write:
    sqrt(sum(region0)) of error_velocity_mag_squ = 0.00265213402398

volFieldValue error_pressure_norm write:
    max(region0) of error_pres = 0.00385375883412

Courant Number mean: 0.0524868272144 max: 0.0647400357145
Time = 0.08625

PIMPLE: iteration 1
DILUPBiCGStab:  Solving for Ux, Initial residual = 0.00374929698287, Final residual = 9.23965167679e-09, No Iterations 4
DILUPBiCGStab:  Solving for Uy, Initial residual = 0.00374929695098, Final residual = 9.25036577446e-09, No Iterations 4
DICPCG:  Solving for p, Initial residual = 0.0393777531307, Final residual = 0.000371124922447, No Iterations 35
time step continuity errors : sum local = 7.79964272786e-10, global = 8.45901822009e-21, cumulative = 3.46802467358e-19
DICPCG:  Solving for p, Initial residual = 0.031877205389, Final residual = 0.000309582151006, No Iterations 35
time step continuity errors : sum local = 6.4213495552e-10, global = 1.70127291591e-20, cumulative = 3.63815196517e-19
DICPCG:  Solving for p, Initial residual = 0.000541678493975, Final residual = 4.474912251e-06, No Iterations 84
time step continuity errors : sum local = 9.42375258088e-12, global = -1.24593909874e-20, cumulative = 3.5135580553e-19
DICPCG:  Solving for p, Initial residual = 0.000116966134387, Final residual = 8.97769783685e-13, No Iterations 187
time step continuity errors : sum local = 4.01746071666e-18, global = 1.01852059912e-20, cumulative = 3.61541011521e-19
ExecutionTime = 15 s  ClockTime = 73 s

volFieldValue error_velocity_norm write:
    max(region0) of error_velocity_mag = 2.93064214083e-05

volFieldValue L2_error_velocity_norm write:
    sqrt(sum(region0)) of error_velocity_mag_squ = 0.00265213402398

volFieldValue error_pressure_norm write:
    max(region0) of error_pres = 0.00385375883412

Courant Number mean: 0.0520947209182 max: 0.0642563913202
Time = 0.09

PIMPLE: iteration 1
DILUPBiCGStab:  Solving for Ux, Initial residual = 0.00374929704864, Final residual = 9.24016925436e-09, No Iterations 4
DILUPBiCGStab:  Solving for Uy, Initial residual = 0.00374929701699, Final residual = 9.25080331378e-09, No Iterations 4
DICPCG:  Solving for p, Initial residual = 0.0393777915155, Final residual = 0.000371124627239, No Iterations 35
time step continuity errors : sum local = 7.68353715637e-10, global = 9.86360016931e-21, cumulative = 3.71404611691e-19
DICPCG:  Solving for p, Initial residual = 0.0318772402147, Final residual = 0.000309585506717, No Iterations 35
time step continuity errors : sum local = 6.32583252365e-10, global = -3.36992463173e-20, cumulative = 3.37705365373e-19
DICPCG:  Solving for p, Initial residual = 0.000541688660212, Final residual = 4.47396293998e-06, No Iterations 84
time step continuity errors : sum local = 9.28150178767e-12, global = -1.08199886209e-20, cumulative = 3.26885376752e-19
DICPCG:  Solving for p, Initial residual = 0.000116968177715, Final residual = 8.97789724878e-13, No Iterations 187
time step continuity errors : sum local = 3.99558907984e-18, global = -2.8508502011e-20, cumulative = 2.98376874741e-19
ExecutionTime = 15.66 s  ClockTime = 74 s

volFieldValue error_velocity_norm write:
    max(region0) of error_velocity_mag = 2.93064214083e-05

volFieldValue L2_error_velocity_norm write:
    sqrt(sum(region0)) of error_velocity_mag_squ = 0.00265213402398

volFieldValue error_pressure_norm write:
    max(region0) of error_pres = 0.00385375883412

Courant Number mean: 0.0517055438567 max: 0.0637763599878
Time = 0.09375

PIMPLE: iteration 1
DILUPBiCGStab:  Solving for Ux, Initial residual = 0.00374929711292, Final residual = 9.24066383752e-09, No Iterations 4
DILUPBiCGStab:  Solving for Uy, Initial residual = 0.0037492970815, Final residual = 9.25121606533e-09, No Iterations 4
DICPCG:  Solving for p, Initial residual = 0.0393778307278, Final residual = 0.000371124317363, No Iterations 35
time step continuity errors : sum local = 7.56915970238e-10, global = -2.70048711821e-20, cumulative = 2.71372003559e-19
DICPCG:  Solving for p, Initial residual = 0.0318772753719, Final residual = 0.000309588824844, No Iterations 35
time step continuity errors : sum local = 6.23173556269e-10, global = -3.25514384989e-20, cumulative = 2.3882056506e-19
DICPCG:  Solving for p, Initial residual = 0.000541698972105, Final residual = 4.47302539591e-06, No Iterations 84
time step continuity errors : sum local = 9.14142201755e-12, global = -1.90458859276e-20, cumulative = 2.19774679133e-19
DICPCG:  Solving for p, Initial residual = 0.000116970255867, Final residual = 8.97809525328e-13, No Iterations 187
time step continuity errors : sum local = 3.88109003601e-18, global = 1.57320942353e-20, cumulative = 2.35506773368e-19
ExecutionTime = 16.29 s  ClockTime = 74 s

volFieldValue error_velocity_norm write:
    max(region0) of error_velocity_mag = 2.93064214083e-05

volFieldValue L2_error_velocity_norm write:
    sqrt(sum(region0)) of error_velocity_mag_squ = 0.00265213402398

volFieldValue error_pressure_norm write:
    max(region0) of error_pres = 0.00385375883412

Courant Number mean: 0.0513192741475 max: 0.0632999147271
Time = 0.0975

PIMPLE: iteration 1
DILUPBiCGStab:  Solving for Ux, Initial residual = 0.00374929717574, Final residual = 9.241133973e-09, No Iterations 4
DILUPBiCGStab:  Solving for Uy, Initial residual = 0.00374929714456, Final residual = 9.25160488258e-09, No Iterations 4
DICPCG:  Solving for p, Initial residual = 0.0393778711503, Final residual = 0.000371124010964, No Iterations 35
time step continuity errors : sum local = 7.45648500847e-10, global = 3.97479672776e-21, cumulative = 2.39481570096e-19
DICPCG:  Solving for p, Initial residual = 0.0318773116869, Final residual = 0.000309592074517, No Iterations 35
time step continuity errors : sum local = 6.13903696834e-10, global = -4.83388116918e-21, cumulative = 2.34647688927e-19
DICPCG:  Solving for p, Initial residual = 0.000541709351499, Final residual = 4.47209936129e-06, No Iterations 84
time step continuity errors : sum local = 9.00347894852e-12, global = 1.89761135586e-20, cumulative = 2.53623802485e-19
DICPCG:  Solving for p, Initial residual = 0.000116972344852, Final residual = 8.97856931575e-13, No Iterations 187
time step continuity errors : sum local = 3.87757836866e-18, global = -5.65102082675e-21, cumulative = 2.47972781658e-19
ExecutionTime = 16.93 s  ClockTime = 75 s

volFieldValue error_velocity_norm write:
    max(region0) of error_velocity_mag = 2.93064214083e-05

volFieldValue L2_error_velocity_norm write:
    sqrt(sum(region0)) of error_velocity_mag_squ = 0.00265213402398

volFieldValue error_pressure_norm write:
    max(region0) of error_pres = 0.00385375883412

Courant Number mean: 0.0509358900717 max: 0.0628270287492
Time = 0.10125

PIMPLE: iteration 1
DILUPBiCGStab:  Solving for Ux, Initial residual = 0.00374929723714, Final residual = 9.24158044482e-09, No Iterations 4
DILUPBiCGStab:  Solving for Uy, Initial residual = 0.00374929720618, Final residual = 9.25197047538e-09, No Iterations 4
DICPCG:  Solving for p, Initial residual = 0.039377912665, Final residual = 0.000371123715279, No Iterations 35
time step continuity errors : sum local = 7.34548787033e-10, global = -1.44575532023e-20, cumulative = 2.33515228456e-19
DICPCG:  Solving for p, Initial residual = 0.031877348249, Final residual = 0.000309595267313, No Iterations 35
time step continuity errors : sum local = 6.04771620779e-10, global = 1.30578081907e-20, cumulative = 2.46573036647e-19
DICPCG:  Solving for p, Initial residual = 0.000541719711644, Final residual = 4.47118678414e-06, No Iterations 84
time step continuity errors : sum local = 8.86764363764e-12, global = 1.3756034745e-20, cumulative = 2.60329071392e-19
DICPCG:  Solving for p, Initial residual = 0.000116974463013, Final residual = 8.97848548379e-13, No Iterations 187
time step continuity errors : sum local = 3.74284343627e-18, global = 1.86840225855e-20, cumulative = 2.79013093977e-19
ExecutionTime = 17.58 s  ClockTime = 76 s

volFieldValue error_velocity_norm write:
    max(region0) of error_velocity_mag = 2.93064214083e-05

volFieldValue L2_error_velocity_norm write:
    sqrt(sum(region0)) of error_velocity_mag_squ = 0.00265213402398

volFieldValue error_pressure_norm write:
    max(region0) of error_pres = 0.00385375883412

Courant Number mean: 0.0505553700728 max: 0.0623576754653
Time = 0.105

PIMPLE: iteration 1
DILUPBiCGStab:  Solving for Ux, Initial residual = 0.00374929729716, Final residual = 9.24200410563e-09, No Iterations 4
DILUPBiCGStab:  Solving for Uy, Initial residual = 0.00374929726642, Final residual = 9.25231402648e-09, No Iterations 4
DICPCG:  Solving for p, Initial residual = 0.0393779554128, Final residual = 0.000371123557837, No Iterations 35
time step continuity errors : sum local = 7.23614573609e-10, global = -1.67281167077e-20, cumulative = 2.6228497727e-19
DICPCG:  Solving for p, Initial residual = 0.0318773857388, Final residual = 0.000309598399148, No Iterations 35
time step continuity errors : sum local = 5.95775273698e-10, global = 3.08965599552e-21, cumulative = 2.65374633265e-19
DICPCG:  Solving for p, Initial residual = 0.00054173011213, Final residual = 4.47028572658e-06, No Iterations 84
time step continuity errors : sum local = 8.73387962127e-12, global = -7.50263571058e-21, cumulative = 2.57871997554e-19
DICPCG:  Solving for p, Initial residual = 0.000116976609846, Final residual = 8.97866278446e-13, No Iterations 187
time step continuity errors : sum local = 3.68615355697e-18, global = 1.37931130026e-20, cumulative = 2.71665110557e-19
ExecutionTime = 18.23 s  ClockTime = 76 s

volFieldValue error_velocity_norm write:
    max(region0) of error_velocity_mag = 2.93064214083e-05

volFieldValue L2_error_velocity_norm write:
    sqrt(sum(region0)) of error_velocity_mag_squ = 0.00265213402398

volFieldValue error_pressure_norm write:
    max(region0) of error_pres = 0.00385375883412

Courant Number mean: 0.0501776927549 max: 0.0618918284855
Time = 0.10875

PIMPLE: iteration 1
DILUPBiCGStab:  Solving for Ux, Initial residual = 0.00374929735582, Final residual = 9.24240557404e-09, No Iterations 4
DILUPBiCGStab:  Solving for Uy, Initial residual = 0.0037492973253, Final residual = 9.25263663841e-09, No Iterations 4
DICPCG:  Solving for p, Initial residual = 0.0393779988882, Final residual = 0.000371123398641, No Iterations 35
time step continuity errors : sum local = 7.12843125985e-10, global = -9.74839053748e-21, cumulative = 2.6191672002e-19
DICPCG:  Solving for p, Initial residual = 0.0318774244566, Final residual = 0.00030960153179, No Iterations 35
time step continuity errors : sum local = 5.86912755127e-10, global = 1.14177060358e-20, cumulative = 2.73334426055e-19
DICPCG:  Solving for p, Initial residual = 0.000541740602986, Final residual = 4.46939694812e-06, No Iterations 84
time step continuity errors : sum local = 8.60215671838e-12, global = 7.81763086406e-21, cumulative = 2.81152056919e-19
DICPCG:  Solving for p, Initial residual = 0.00011697877214, Final residual = 8.97929293932e-13, No Iterations 187
time step continuity errors : sum local = 3.61747006671e-18, global = 4.53755056652e-20, cumulative = 3.26527562585e-19
ExecutionTime = 18.85 s  ClockTime = 77 s

volFieldValue error_velocity_norm write:
    max(region0) of error_velocity_mag = 2.93064214083e-05

volFieldValue L2_error_velocity_norm write:
    sqrt(sum(region0)) of error_velocity_mag_squ = 0.00265213402398

volFieldValue error_pressure_norm write:
    max(region0) of error_pres = 0.00385375883412

Courant Number mean: 0.0498028368824 max: 0.0614294616167
Time = 0.1125

PIMPLE: iteration 1
DILUPBiCGStab:  Solving for Ux, Initial residual = 0.00374929741316, Final residual = 9.24278615373e-09, No Iterations 4
DILUPBiCGStab:  Solving for Uy, Initial residual = 0.00374929738287, Final residual = 9.25293859373e-09, No Iterations 4
DICPCG:  Solving for p, Initial residual = 0.0393780435702, Final residual = 0.000371123231594, No Iterations 35
time step continuity errors : sum local = 7.02232009897e-10, global = 1.18709905802e-20, cumulative = 3.38398553165e-19
DICPCG:  Solving for p, Initial residual = 0.0318774643844, Final residual = 0.000309604664264, No Iterations 35
time step continuity errors : sum local = 5.78182072568e-10, global = 9.88540724655e-21, cumulative = 3.48283960411e-19
DICPCG:  Solving for p, Initial residual = 0.000541751109626, Final residual = 4.46852263611e-06, No Iterations 84
time step continuity errors : sum local = 8.47244733249e-12, global = -1.14101390397e-20, cumulative = 3.36873821372e-19
DICPCG:  Solving for p, Initial residual = 0.000116980951036, Final residual = 8.97908127829e-13, No Iterations 187
time step continuity errors : sum local = 3.53705980795e-18, global = -4.54126887342e-21, cumulative = 3.32332552498e-19
ExecutionTime = 19.47 s  ClockTime = 78 s

volFieldValue error_velocity_norm write:
    max(region0) of error_velocity_mag = 2.93064214083e-05

volFieldValue L2_error_velocity_norm write:
    sqrt(sum(region0)) of error_velocity_mag_squ = 0.00265213402398

volFieldValue error_pressure_norm write:
    max(region0) of error_pres = 0.00385375883412

Courant Number mean: 0.0494307813779 max: 0.0609705488615
Time = 0.11625

PIMPLE: iteration 1
DILUPBiCGStab:  Solving for Ux, Initial residual = 0.00374929746922, Final residual = 9.24314604339e-09, No Iterations 4
DILUPBiCGStab:  Solving for Uy, Initial residual = 0.00374929743914, Final residual = 9.25322014127e-09, No Iterations 4
DICPCG:  Solving for p, Initial residual = 0.0393780904709, Final residual = 0.000371123040787, No Iterations 35
time step continuity errors : sum local = 6.91778810037e-10, global = -5.5517326885e-21, cumulative = 3.2678081981e-19
DICPCG:  Solving for p, Initial residual = 0.0318775055883, Final residual = 0.000309607706036, No Iterations 35
time step continuity errors : sum local = 5.69581101095e-10, global = 3.08122828382e-21, cumulative = 3.29862048094e-19
DICPCG:  Solving for p, Initial residual = 0.00054176165703, Final residual = 4.46766119026e-06, No Iterations 84
time step continuity errors : sum local = 8.34471742016e-12, global = 4.89437974532e-21, cumulative = 3.34756427839e-19
DICPCG:  Solving for p, Initial residual = 0.000116983146147, Final residual = 8.97927936862e-13, No Iterations 187
time step continuity errors : sum local = 3.39122766849e-18, global = 3.74551158252e-21, cumulative = 3.38501939421e-19
ExecutionTime = 20.07 s  ClockTime = 78 s

volFieldValue error_velocity_norm write:
    max(region0) of error_velocity_mag = 2.93064214083e-05

volFieldValue L2_error_velocity_norm write:
    sqrt(sum(region0)) of error_velocity_mag_squ = 0.00265213402398

volFieldValue error_pressure_norm write:
    max(region0) of error_pres = 0.00385375883412

Courant Number mean: 0.0490615053218 max: 0.0605150644168
Time = 0.12

PIMPLE: iteration 1
DILUPBiCGStab:  Solving for Ux, Initial residual = 0.00374929752403, Final residual = 9.24348597121e-09, No Iterations 4
DILUPBiCGStab:  Solving for Uy, Initial residual = 0.00374929749416, Final residual = 9.25348219567e-09, No Iterations 4
DICPCG:  Solving for p, Initial residual = 0.039378139841, Final residual = 0.000371122854108, No Iterations 35
time step continuity errors : sum local = 6.81481226909e-10, global = -8.19182377291e-21, cumulative = 3.30310115649e-19
DICPCG:  Solving for p, Initial residual = 0.0318775470572, Final residual = 0.000309610704223, No Iterations 35
time step continuity errors : sum local = 5.61107999967e-10, global = 4.86000660401e-22, cumulative = 3.30796116309e-19
DICPCG:  Solving for p, Initial residual = 0.000541772229518, Final residual = 4.46681346172e-06, No Iterations 84
time step continuity errors : sum local = 8.21893789169e-12, global = 2.47009224648e-20, cumulative = 3.55497038774e-19
DICPCG:  Solving for p, Initial residual = 0.000116985366992, Final residual = 8.98009434122e-13, No Iterations 187
time step continuity errors : sum local = 3.39964647822e-18, global = -3.34268372048e-20, cumulative = 3.22070201569e-19
ExecutionTime = 20.69 s  ClockTime = 79 s

volFieldValue error_velocity_norm write:
    max(region0) of error_velocity_mag = 2.93064214083e-05

volFieldValue L2_error_velocity_norm write:
    sqrt(sum(region0)) of error_velocity_mag_squ = 0.00265213402398

volFieldValue error_pressure_norm write:
    max(region0) of error_pres = 0.00385375883412

Courant Number mean: 0.0486949879506 max: 0.0600629826721
Time = 0.12375

PIMPLE: iteration 1
DILUPBiCGStab:  Solving for Ux, Initial residual = 0.00374929757761, Final residual = 9.24380778338e-09, No Iterations 4
DILUPBiCGStab:  Solving for Uy, Initial residual = 0.00374929754795, Final residual = 9.25372636295e-09, No Iterations 4
DICPCG:  Solving for p, Initial residual = 0.039378190582, Final residual = 0.000371122636883, No Iterations 35
time step continuity errors : sum local = 6.71336882383e-10, global = 2.9401957222e-20, cumulative = 3.51472158791e-19
DICPCG:  Solving for p, Initial residual = 0.0318775887883, Final residual = 0.000309613624241, No Iterations 35
time step continuity errors : sum local = 5.52760808635e-10, global = -6.09986552588e-21, cumulative = 3.45372293265e-19
DICPCG:  Solving for p, Initial residual = 0.000541783405115, Final residual = 4.46597942025e-06, No Iterations 84
time step continuity errors : sum local = 8.09507887629e-12, global = -5.31663019511e-21, cumulative = 3.4005566307e-19
DICPCG:  Solving for p, Initial residual = 0.000116987616017, Final residual = 8.98055402201e-13, No Iterations 187
time step continuity errors : sum local = 3.33455289723e-18, global = 2.77515339862e-20, cumulative = 3.67807197056e-19
ExecutionTime = 21.29 s  ClockTime = 80 s

volFieldValue error_velocity_norm write:
    max(region0) of error_velocity_mag = 2.93064214083e-05

volFieldValue L2_error_velocity_norm write:
    sqrt(sum(region0)) of error_velocity_mag_squ = 0.00265213402398

volFieldValue error_pressure_norm write:
    max(region0) of error_pres = 0.00385375883412

Courant Number mean: 0.0483312086558 max: 0.0596142782084
Time = 0.1275

PIMPLE: iteration 1
DILUPBiCGStab:  Solving for Ux, Initial residual = 0.00374929763, Final residual = 9.24411127356e-09, No Iterations 4
DILUPBiCGStab:  Solving for Uy, Initial residual = 0.00374929760054, Final residual = 9.25395271169e-09, No Iterations 4
DICPCG:  Solving for p, Initial residual = 0.039378242882, Final residual = 0.000371122453087, No Iterations 35
time step continuity errors : sum local = 6.61343608207e-10, global = 1.77134251072e-20, cumulative = 3.85520622163e-19
DICPCG:  Solving for p, Initial residual = 0.0318776317809, Final residual = 0.000309616492671, No Iterations 35
time step continuity errors : sum local = 5.44537703861e-10, global = 2.39542579793e-20, cumulative = 4.09474880143e-19
DICPCG:  Solving for p, Initial residual = 0.000541794791973, Final residual = 4.46515768431e-06, No Iterations 84
time step continuity errors : sum local = 7.97310779993e-12, global = -1.2296761506e-20, cumulative = 3.97178118637e-19
DICPCG:  Solving for p, Initial residual = 0.000116989901075, Final residual = 8.97987775847e-13, No Iterations 187
time step continuity errors : sum local = 3.36957828583e-18, global = 4.477704251e-22, cumulative = 3.97625889062e-19
ExecutionTime = 21.91 s  ClockTime = 80 s

volFieldValue error_velocity_norm write:
    max(region0) of error_velocity_mag = 2.93064214083e-05

volFieldValue L2_error_velocity_norm write:
    sqrt(sum(region0)) of error_velocity_mag_squ = 0.00265213402398

volFieldValue error_pressure_norm write:
    max(region0) of error_pres = 0.00385375883412

Courant Number mean: 0.047970146983 max: 0.0591689257963
Time = 0.13125

PIMPLE: iteration 1
DILUPBiCGStab:  Solving for Ux, Initial residual = 0.00374929768122, Final residual = 9.24439714238e-09, No Iterations 4
DILUPBiCGStab:  Solving for Uy, Initial residual = 0.00374929765197, Final residual = 9.25416226486e-09, No Iterations 4
DICPCG:  Solving for p, Initial residual = 0.0393782957926, Final residual = 0.000371122238988, No Iterations 35
time step continuity errors : sum local = 6.51499044312e-10, global = -1.02649277061e-20, cumulative = 3.87360961356e-19
DICPCG:  Solving for p, Initial residual = 0.0318776751114, Final residual = 0.000309619296005, No Iterations 35
time step continuity errors : sum local = 5.36436819553e-10, global = -1.80428617331e-21, cumulative = 3.85556675182e-19
DICPCG:  Solving for p, Initial residual = 0.000541806275236, Final residual = 4.46434826065e-06, No Iterations 84
time step continuity errors : sum local = 7.85299585871e-12, global = -9.73284457784e-21, cumulative = 3.75823830604e-19
DICPCG:  Solving for p, Initial residual = 0.00011699219653, Final residual = 8.98007170981e-13, No Iterations 187
time step continuity errors : sum local = 3.32101029327e-18, global = -1.71306183531e-20, cumulative = 3.58693212251e-19
ExecutionTime = 22.61 s  ClockTime = 81 s

volFieldValue error_velocity_norm write:
    max(region0) of error_velocity_mag = 2.93064214083e-05

volFieldValue L2_error_velocity_norm write:
    sqrt(sum(region0)) of error_velocity_mag_squ = 0.00265213402398

volFieldValue error_pressure_norm write:
    max(region0) of error_pres = 0.00385375883412

Courant Number mean: 0.0476117826306 max: 0.058726900395
Time = 0.135

PIMPLE: iteration 1
DILUPBiCGStab:  Solving for Ux, Initial residual = 0.00374929773131, Final residual = 9.2446664286e-09, No Iterations 4
DILUPBiCGStab:  Solving for Uy, Initial residual = 0.00374929770226, Final residual = 9.25435549199e-09, No Iterations 4
DICPCG:  Solving for p, Initial residual = 0.0393783499485, Final residual = 0.000371122043573, No Iterations 35
time step continuity errors : sum local = 6.4180106149e-10, global = 3.22642284329e-21, cumulative = 3.61919635095e-19
DICPCG:  Solving for p, Initial residual = 0.03187771872, Final residual = 0.000309622026316, No Iterations 35
time step continuity errors : sum local = 5.28456327484e-10, global = 3.9316225806e-21, cumulative = 3.65851257675e-19
DICPCG:  Solving for p, Initial residual = 0.000541817776775, Final residual = 4.46355021006e-06, No Iterations 84
time step continuity errors : sum local = 7.73471271079e-12, global = -7.59281941025e-22, cumulative = 3.65091975734e-19
DICPCG:  Solving for p, Initial residual = 0.000116994526108, Final residual = 8.98027839697e-13, No Iterations 187
time step continuity errors : sum local = 3.27902687096e-18, global = -6.09561005679e-21, cumulative = 3.58996365677e-19
ExecutionTime = 23.27 s  ClockTime = 82 s

volFieldValue error_velocity_norm write:
    max(region0) of error_velocity_mag = 2.93064214083e-05

volFieldValue L2_error_velocity_norm write:
    sqrt(sum(region0)) of error_velocity_mag_squ = 0.00265213402398

volFieldValue error_pressure_norm write:
    max(region0) of error_pres = 0.00385375883412

Courant Number mean: 0.0472560954485 max: 0.0582881771507
Time = 0.13875

PIMPLE: iteration 1
DILUPBiCGStab:  Solving for Ux, Initial residual = 0.00374929778029, Final residual = 9.2449193285e-09, No Iterations 4
DILUPBiCGStab:  Solving for Uy, Initial residual = 0.00374929775144, Final residual = 9.25453316854e-09, No Iterations 4
DICPCG:  Solving for p, Initial residual = 0.0393784048637, Final residual = 0.000371121877078, No Iterations 35
time step continuity errors : sum local = 6.32247493375e-10, global = 6.31282592753e-21, cumulative = 3.65309191605e-19
DICPCG:  Solving for p, Initial residual = 0.0318777626153, Final residual = 0.000309624689454, No Iterations 35
time step continuity errors : sum local = 5.20594449791e-10, global = -8.51405527898e-21, cumulative = 3.56795136326e-19
DICPCG:  Solving for p, Initial residual = 0.00054182992382, Final residual = 4.4627607966e-06, No Iterations 84
time step continuity errors : sum local = 7.61822561345e-12, global = 5.54420242477e-21, cumulative = 3.62339338751e-19
DICPCG:  Solving for p, Initial residual = 0.000116996878026, Final residual = 8.98051238796e-13, No Iterations 187
time step continuity errors : sum local = 3.28181814308e-18, global = 2.44276335882e-21, cumulative = 3.64782102109e-19
ExecutionTime = 23.9 s  ClockTime = 82 s

volFieldValue error_velocity_norm write:
    max(region0) of error_velocity_mag = 2.93064214083e-05

volFieldValue L2_error_velocity_norm write:
    sqrt(sum(region0)) of error_velocity_mag_squ = 0.00265213402398

volFieldValue error_pressure_norm write:
    max(region0) of error_pres = 0.00385375883412

Courant Number mean: 0.0469030654373 max: 0.0578527313953
Time = 0.1425

PIMPLE: iteration 1
DILUPBiCGStab:  Solving for Ux, Initial residual = 0.00374929782819, Final residual = 9.24515647319e-09, No Iterations 4
DILUPBiCGStab:  Solving for Uy, Initial residual = 0.00374929779954, Final residual = 9.25469848961e-09, No Iterations 4
DICPCG:  Solving for p, Initial residual = 0.039378460409, Final residual = 0.000371121657199, No Iterations 35
time step continuity errors : sum local = 6.22836054e-10, global = 1.91756150152e-20, cumulative = 3.83957717125e-19
DICPCG:  Solving for p, Initial residual = 0.0318778072896, Final residual = 0.000309627288506, No Iterations 35
time step continuity errors : sum local = 5.12849430263e-10, global = 2.88241891056e-20, cumulative = 4.1278190623e-19
DICPCG:  Solving for p, Initial residual = 0.000541842210935, Final residual = 4.46198212897e-06, No Iterations 84
time step continuity errors : sum local = 7.50351055956e-12, global = 1.80005860652e-20, cumulative = 4.30782492296e-19
DICPCG:  Solving for p, Initial residual = 0.000116999250161, Final residual = 8.98067818765e-13, No Iterations 187
time step continuity errors : sum local = 3.2646838665e-18, global = -2.75773174963e-20, cumulative = 4.03205174799e-19
ExecutionTime = 24.56 s  ClockTime = 83 s

volFieldValue error_velocity_norm write:
    max(region0) of error_velocity_mag = 2.93064214083e-05

volFieldValue L2_error_velocity_norm write:
    sqrt(sum(region0)) of error_velocity_mag_squ = 0.00265213402398

volFieldValue error_pressure_norm write:
    max(region0) of error_pres = 0.00385375883412

Courant Number mean: 0.0465526727468 max: 0.0574205386448
Time = 0.14625

PIMPLE: iteration 1
DILUPBiCGStab:  Solving for Ux, Initial residual = 0.00374929787503, Final residual = 9.24537872853e-09, No Iterations 4
DILUPBiCGStab:  Solving for Uy, Initial residual = 0.00374929784658, Final residual = 9.25485379781e-09, No Iterations 4
DICPCG:  Solving for p, Initial residual = 0.0393785173226, Final residual = 0.000371121401856, No Iterations 35
time step continuity errors : sum local = 6.13564660181e-10, global = 2.21310766343e-20, cumulative = 4.25336251434e-19
DICPCG:  Solving for p, Initial residual = 0.0318778525518, Final residual = 0.000309629832877, No Iterations 35
time step continuity errors : sum local = 5.0521954771e-10, global = 2.13684637986e-20, cumulative = 4.46704715232e-19
DICPCG:  Solving for p, Initial residual = 0.000541854527292, Final residual = 4.46121521493e-06, No Iterations 84
time step continuity errors : sum local = 7.39054202372e-12, global = -9.13585545855e-21, cumulative = 4.37568859774e-19
DICPCG:  Solving for p, Initial residual = 0.000117001651605, Final residual = 8.98088662228e-13, No Iterations 187
time step continuity errors : sum local = 3.21469725816e-18, global = 2.50781817794e-20, cumulative = 4.62647041553e-19
ExecutionTime = 25.26 s  ClockTime = 84 s

volFieldValue error_velocity_norm write:
    max(region0) of error_velocity_mag = 2.93064214083e-05

volFieldValue L2_error_velocity_norm write:
    sqrt(sum(region0)) of error_velocity_mag_squ = 0.00265213402398

volFieldValue error_pressure_norm write:
    max(region0) of error_pres = 0.00385375883412

Courant Number mean: 0.0462048976753 max: 0.0569915745983
Time = 0.15

PIMPLE: iteration 1
DILUPBiCGStab:  Solving for Ux, Initial residual = 0.00374929792085, Final residual = 9.24558651465e-09, No Iterations 4
DILUPBiCGStab:  Solving for Uy, Initial residual = 0.00374929789259, Final residual = 9.25499535966e-09, No Iterations 4
DICPCG:  Solving for p, Initial residual = 0.0393785761217, Final residual = 0.000371121420966, No Iterations 35
time step continuity errors : sum local = 6.04431720205e-10, global = 1.46869415916e-20, cumulative = 4.77333983145e-19
DICPCG:  Solving for p, Initial residual = 0.0318778987679, Final residual = 0.000309632250971, No Iterations 35
time step continuity errors : sum local = 4.97702980811e-10, global = -7.34354858283e-21, cumulative = 4.69990434562e-19
DICPCG:  Solving for p, Initial residual = 0.000541866889308, Final residual = 4.46045879864e-06, No Iterations 84
time step continuity errors : sum local = 7.27929121229e-12, global = 1.16778709731e-21, cumulative = 4.71158221659e-19
DICPCG:  Solving for p, Initial residual = 0.000117004092786, Final residual = 8.98109163982e-13, No Iterations 187
time step continuity errors : sum local = 3.23371041242e-18, global = -2.93837849398e-21, cumulative = 4.68219843165e-19
ExecutionTime = 25.95 s  ClockTime = 85 s

volFieldValue error_velocity_norm write:
    max(region0) of error_velocity_mag = 2.93064214083e-05

volFieldValue L2_error_velocity_norm write:
    sqrt(sum(region0)) of error_velocity_mag_squ = 0.00265213402398

volFieldValue error_pressure_norm write:
    max(region0) of error_pres = 0.00385375883412

Courant Number mean: 0.0458597206681 max: 0.0565658151363
Time = 0.15375

PIMPLE: iteration 1
DILUPBiCGStab:  Solving for Ux, Initial residual = 0.00374929796567, Final residual = 9.24578081756e-09, No Iterations 4
DILUPBiCGStab:  Solving for Uy, Initial residual = 0.0037492979376, Final residual = 9.2551237781e-09, No Iterations 4
DICPCG:  Solving for p, Initial residual = 0.0393786366843, Final residual = 0.000371121668836, No Iterations 35
time step continuity errors : sum local = 5.95435070294e-10, global = -1.42211530065e-20, cumulative = 4.53998690159e-19
DICPCG:  Solving for p, Initial residual = 0.0318779459759, Final residual = 0.000309634799971, No Iterations 35
time step continuity errors : sum local = 4.90298442596e-10, global = 7.30532054032e-21, cumulative = 4.61304010699e-19
DICPCG:  Solving for p, Initial residual = 0.000541879426628, Final residual = 4.45971169796e-06, No Iterations 84
time step continuity errors : sum local = 7.16972963284e-12, global = -8.4016825649e-21, cumulative = 4.52902328134e-19
DICPCG:  Solving for p, Initial residual = 0.000117006578799, Final residual = 8.98131196724e-13, No Iterations 187
time step continuity errors : sum local = 3.17740274541e-18, global = -3.3827077148e-20, cumulative = 4.19075250986e-19
ExecutionTime = 26.61 s  ClockTime = 85 s

volFieldValue error_velocity_norm write:
    max(region0) of error_velocity_mag = 2.93064214083e-05

volFieldValue L2_error_velocity_norm write:
    sqrt(sum(region0)) of error_velocity_mag_squ = 0.00265213402398

volFieldValue error_pressure_norm write:
    max(region0) of error_pres = 0.00385375883412

Courant Number mean: 0.0455171223166 max: 0.0561432363194
Time = 0.1575

PIMPLE: iteration 1
DILUPBiCGStab:  Solving for Ux, Initial residual = 0.0037492980095, Final residual = 9.24596172726e-09, No Iterations 4
DILUPBiCGStab:  Solving for Uy, Initial residual = 0.00374929798162, Final residual = 9.25523936188e-09, No Iterations 4
DICPCG:  Solving for p, Initial residual = 0.0393786987263, Final residual = 0.000371121739064, No Iterations 35
time step continuity errors : sum local = 5.86572080348e-10, global = -7.53358224574e-21, cumulative = 4.1154166874e-19
DICPCG:  Solving for p, Initial residual = 0.0318779934838, Final residual = 0.000309637162955, No Iterations 35
time step continuity errors : sum local = 4.83003786539e-10, global = 1.61034838828e-20, cumulative = 4.27645152623e-19
DICPCG:  Solving for p, Initial residual = 0.000541892080454, Final residual = 4.45897368375e-06, No Iterations 84
time step continuity errors : sum local = 7.06183122963e-12, global = -3.01546540802e-21, cumulative = 4.24629687215e-19
DICPCG:  Solving for p, Initial residual = 0.000117009098731, Final residual = 8.98141538698e-13, No Iterations 187
time step continuity errors : sum local = 3.17853838635e-18, global = 2.29675311236e-20, cumulative = 4.47597218339e-19
ExecutionTime = 27.27 s  ClockTime = 86 s

volFieldValue error_velocity_norm write:
    max(region0) of error_velocity_mag = 2.93064214083e-05

volFieldValue L2_error_velocity_norm write:
    sqrt(sum(region0)) of error_velocity_mag_squ = 0.00265213402398

volFieldValue error_pressure_norm write:
    max(region0) of error_pres = 0.00385375883412

Courant Number mean: 0.0451770833573 max: 0.0557238143872
Time = 0.16125

PIMPLE: iteration 1
DILUPBiCGStab:  Solving for Ux, Initial residual = 0.00374929805238, Final residual = 9.24613009394e-09, No Iterations 4
DILUPBiCGStab:  Solving for Uy, Initial residual = 0.00374929802469, Final residual = 9.25534301681e-09, No Iterations 4
DICPCG:  Solving for p, Initial residual = 0.0393787619331, Final residual = 0.000371121752363, No Iterations 35
time step continuity errors : sum local = 5.77840937886e-10, global = 1.68068780186e-20, cumulative = 4.64404096357e-19
DICPCG:  Solving for p, Initial residual = 0.0318780416294, Final residual = 0.000309639338826, No Iterations 35
time step continuity errors : sum local = 4.7581737973e-10, global = -5.63025985265e-21, cumulative = 4.58773836505e-19
DICPCG:  Solving for p, Initial residual = 0.000541904702907, Final residual = 4.45824536752e-06, No Iterations 84
time step continuity errors : sum local = 6.95557146378e-12, global = -9.65826839464e-21, cumulative = 4.4911556811e-19
DICPCG:  Solving for p, Initial residual = 0.000117011611737, Final residual = 8.98173463325e-13, No Iterations 187
time step continuity errors : sum local = 3.13253333978e-18, global = 1.76647617901e-20, cumulative = 4.667803299e-19
ExecutionTime = 27.96 s  ClockTime = 87 s

volFieldValue error_velocity_norm write:
    max(region0) of error_velocity_mag = 2.93064214083e-05

volFieldValue L2_error_velocity_norm write:
    sqrt(sum(region0)) of error_velocity_mag_squ = 0.00265213402398

volFieldValue error_pressure_norm write:
    max(region0) of error_pres = 0.00385375883412

Courant Number mean: 0.0448395846704 max: 0.0553075257566
Time = 0.165

PIMPLE: iteration 1
DILUPBiCGStab:  Solving for Ux, Initial residual = 0.00374929809433, Final residual = 9.24628761205e-09, No Iterations 4
DILUPBiCGStab:  Solving for Uy, Initial residual = 0.00374929806682, Final residual = 9.25543533307e-09, No Iterations 4
DICPCG:  Solving for p, Initial residual = 0.0393788269917, Final residual = 0.000371121779325, No Iterations 35
time step continuity errors : sum local = 5.6923978204e-10, global = -1.03064549687e-20, cumulative = 4.56473874931e-19
DICPCG:  Solving for p, Initial residual = 0.0318780915964, Final residual = 0.000309641509003, No Iterations 35
time step continuity errors : sum local = 4.687378876e-10, global = -5.35201493584e-21, cumulative = 4.51121859996e-19
DICPCG:  Solving for p, Initial residual = 0.000541917520201, Final residual = 4.45752691114e-06, No Iterations 84
time step continuity errors : sum local = 6.85092548492e-12, global = 1.26187189651e-20, cumulative = 4.63740578961e-19
DICPCG:  Solving for p, Initial residual = 0.000117014144012, Final residual = 8.98190443367e-13, No Iterations 187
time step continuity errors : sum local = 3.14727322246e-18, global = 1.6823094158e-20, cumulative = 4.80563673119e-19
ExecutionTime = 28.6 s  ClockTime = 88 s

volFieldValue error_velocity_norm write:
    max(region0) of error_velocity_mag = 2.93064214083e-05

volFieldValue L2_error_velocity_norm write:
    sqrt(sum(region0)) of error_velocity_mag_squ = 0.00265213402398

volFieldValue error_pressure_norm write:
    max(region0) of error_pres = 0.00385375883412

Courant Number mean: 0.0445046072791 max: 0.0548943470208
Time = 0.16875

PIMPLE: iteration 1
DILUPBiCGStab:  Solving for Ux, Initial residual = 0.00374929813536, Final residual = 9.24643755744e-09, No Iterations 4
DILUPBiCGStab:  Solving for Uy, Initial residual = 0.00374929810804, Final residual = 9.25551622501e-09, No Iterations 4
DICPCG:  Solving for p, Initial residual = 0.0393788957661, Final residual = 0.000371121763616, No Iterations 35
time step continuity errors : sum local = 5.60766597329e-10, global = 5.99371218764e-21, cumulative = 4.86557385306e-19
DICPCG:  Solving for p, Initial residual = 0.0318781428156, Final residual = 0.000309643577482, No Iterations 35
time step continuity errors : sum local = 4.61763580378e-10, global = -1.20516560158e-20, cumulative = 4.74505729291e-19
DICPCG:  Solving for p, Initial residual = 0.000541930606964, Final residual = 4.45681737445e-06, No Iterations 84
time step continuity errors : sum local = 6.74786709045e-12, global = -5.01794244474e-21, cumulative = 4.69487786846e-19
DICPCG:  Solving for p, Initial residual = 0.0001170166932, Final residual = 8.9821501569e-13, No Iterations 187
time step continuity errors : sum local = 3.104125934e-18, global = 2.51547214759e-20, cumulative = 4.94642508322e-19
ExecutionTime = 29.29 s  ClockTime = 88 s

volFieldValue error_velocity_norm write:
    max(region0) of error_velocity_mag = 2.93064214083e-05

volFieldValue L2_error_velocity_norm write:
    sqrt(sum(region0)) of error_velocity_mag_squ = 0.00265213402398

volFieldValue error_pressure_norm write:
    max(region0) of error_pres = 0.00385375883412

Courant Number mean: 0.0441721323482 max: 0.0544842549477
Time = 0.1725

PIMPLE: iteration 1
DILUPBiCGStab:  Solving for Ux, Initial residual = 0.00374929817551, Final residual = 9.24657615495e-09, No Iterations 4
DILUPBiCGStab:  Solving for Uy, Initial residual = 0.00374929814838, Final residual = 9.25558691376e-09, No Iterations 4
DICPCG:  Solving for p, Initial residual = 0.0393789685352, Final residual = 0.000371121679078, No Iterations 35
time step continuity errors : sum local = 5.52419441821e-10, global = 1.19281239597e-20, cumulative = 5.06570632281e-19
DICPCG:  Solving for p, Initial residual = 0.0318781951293, Final residual = 0.000309645571471, No Iterations 35
time step continuity errors : sum local = 4.54892936357e-10, global = 1.31758165834e-20, cumulative = 5.19746448865e-19
DICPCG:  Solving for p, Initial residual = 0.00054194387265, Final residual = 4.45611597606e-06, No Iterations 84
time step continuity errors : sum local = 6.64637092899e-12, global = 1.9522433993e-20, cumulative = 5.39268882858e-19
DICPCG:  Solving for p, Initial residual = 0.000117019250636, Final residual = 8.98235882682e-13, No Iterations 187
time step continuity errors : sum local = 3.06752333898e-18, global = 1.58647390466e-20, cumulative = 5.55133621904e-19
ExecutionTime = 29.96 s  ClockTime = 89 s

volFieldValue error_velocity_norm write:
    max(region0) of error_velocity_mag = 2.93064214083e-05

volFieldValue L2_error_velocity_norm write:
    sqrt(sum(region0)) of error_velocity_mag_squ = 0.00265213402398

volFieldValue error_pressure_norm write:
    max(region0) of error_pres = 0.00385375883412

Courant Number mean: 0.0438421411834 max: 0.0540772264788
Time = 0.17625

PIMPLE: iteration 1
DILUPBiCGStab:  Solving for Ux, Initial residual = 0.0037492982148, Final residual = 9.24670428488e-09, No Iterations 4
DILUPBiCGStab:  Solving for Uy, Initial residual = 0.00374929818784, Final residual = 9.25564693016e-09, No Iterations 4
DICPCG:  Solving for p, Initial residual = 0.0393790429177, Final residual = 0.000371121587351, No Iterations 35
time step continuity errors : sum local = 5.44196530712e-10, global = -9.61991149283e-21, cumulative = 5.45513710412e-19
[...]
time step continuity errors : sum local = 2.68286797297e-18, global = 1.0100319042e-20, cumulative = 6.30127793502e-19
ExecutionTime = 44.42 s  ClockTime = 106 s

volFieldValue error_velocity_norm write:
    max(region0) of error_velocity_mag = 2.93064214083e-05

volFieldValue L2_error_velocity_norm write:
    sqrt(sum(region0)) of error_velocity_mag_squ = 0.00265213402398

volFieldValue error_pressure_norm write:
    max(region0) of error_pres = 0.00385375883412

Courant Number mean: 0.0371746033481 max: 0.045853133817
Time = 0.25875

PIMPLE: iteration 1
DILUPBiCGStab:  Solving for Ux, Initial residual = 0.00374929889671, Final residual = 9.2475006899e-09, No Iterations 4
DILUPBiCGStab:  Solving for Uy, Initial residual = 0.00374929887347, Final residual = 9.25504901597e-09, No Iterations 4
DICPCG:  Solving for p, Initial residual = 0.0393809226832, Final residual = 0.000371135239677, No Iterations 35
time step continuity errors : sum local = 3.91277354305e-10, global = -1.70615550432e-20, cumulative = 6.13066238459e-19
DICPCG:  Solving for p, Initial residual = 0.0318796794213, Final residual = 0.000309696967288, No Iterations 35
time step continuity errors : sum local = 3.22237376177e-10, global = -7.23776846509e-21, cumulative = 6.05828469994e-19
DICPCG:  Solving for p, Initial residual = 0.000542277588413, Final residual = 4.44268530528e-06, No Iterations 84
time step continuity errors : sum local = 4.69309635614e-12, global = -2.80018653114e-20, cumulative = 5.77826604683e-19
DICPCG:  Solving for p, Initial residual = 0.00011708689131, Final residual = 8.98715342388e-13, No Iterations 187
time step continuity errors : sum local = 2.66503776984e-18, global = -2.26972120954e-21, cumulative = 5.75556883473e-19
ExecutionTime = 45.06 s  ClockTime = 107 s

volFieldValue error_velocity_norm write:
    max(region0) of error_velocity_mag = 2.93064214083e-05

volFieldValue L2_error_velocity_norm write:
    sqrt(sum(region0)) of error_velocity_mag_squ = 0.00265213402398

volFieldValue error_pressure_norm write:
    max(region0) of error_pres = 0.00385375883412

Courant Number mean: 0.0368968875426 max: 0.0455105844818
Time = 0.2625

PIMPLE: iteration 1
DILUPBiCGStab:  Solving for Ux, Initial residual = 0.00374929892085, Final residual = 9.24747271355e-09, No Iterations 4
DILUPBiCGStab:  Solving for Uy, Initial residual = 0.00374929889776, Final residual = 9.25496233959e-09, No Iterations 4
DICPCG:  Solving for p, Initial residual = 0.0393810193269, Final residual = 0.000371136847168, No Iterations 35
time step continuity errors : sum local = 3.85454902174e-10, global = -2.49300685064e-21, cumulative = 5.73063876623e-19
DICPCG:  Solving for p, Initial residual = 0.0318797530604, Final residual = 0.000309700009582, No Iterations 35
time step continuity errors : sum local = 3.17443833359e-10, global = 1.8594120194e-21, cumulative = 5.74923288642e-19
DICPCG:  Solving for p, Initial residual = 0.000542294101892, Final residual = 4.44221352897e-06, No Iterations 84
time step continuity errors : sum local = 4.62274162252e-12, global = 3.72438239693e-21, cumulative = 5.78647671039e-19
DICPCG:  Solving for p, Initial residual = 0.000117090280006, Final residual = 8.9890478736e-13, No Iterations 187
time step continuity errors : sum local = 2.62377810846e-18, global = 1.33233828586e-20, cumulative = 5.91971053897e-19
ExecutionTime = 45.67 s  ClockTime = 107 s

volFieldValue error_velocity_norm write:
    max(region0) of error_velocity_mag = 2.93064214083e-05

volFieldValue L2_error_velocity_norm write:
    sqrt(sum(region0)) of error_velocity_mag_squ = 0.00265213402398

volFieldValue error_pressure_norm write:
    max(region0) of error_pres = 0.00385375883412

Courant Number mean: 0.0366212464281 max: 0.0451705941787
Time = 0.26625

PIMPLE: iteration 1
DILUPBiCGStab:  Solving for Ux, Initial residual = 0.0037492989445, Final residual = 9.24744098895e-09, No Iterations 4
DILUPBiCGStab:  Solving for Uy, Initial residual = 0.00374929892157, Final residual = 9.2548720546e-09, No Iterations 4
DICPCG:  Solving for p, Initial residual = 0.0393811168354, Final residual = 0.000371138506197, No Iterations 35
time step continuity errors : sum local = 3.79719147535e-10, global = 1.59355173729e-20, cumulative = 6.0790657127e-19
DICPCG:  Solving for p, Initial residual = 0.0318798284563, Final residual = 0.000309703027188, No Iterations 35
time step continuity errors : sum local = 3.12721574449e-10, global = -1.48553001795e-20, cumulative = 5.93051271091e-19
DICPCG:  Solving for p, Initial residual = 0.000542310689886, Final residual = 4.44174795413e-06, No Iterations 84
time step continuity errors : sum local = 4.55344780851e-12, global = 2.01597393235e-20, cumulative = 6.13211010414e-19
DICPCG:  Solving for p, Initial residual = 0.000117093695944, Final residual = 8.9875626638e-13, No Iterations 187
time step continuity errors : sum local = 2.61043589651e-18, global = -9.61754131632e-21, cumulative = 6.03593469098e-19
ExecutionTime = 46.28 s  ClockTime = 108 s

volFieldValue error_velocity_norm write:
    max(region0) of error_velocity_mag = 2.93064214083e-05

volFieldValue L2_error_velocity_norm write:
    sqrt(sum(region0)) of error_velocity_mag_squ = 0.00265213402398

volFieldValue error_pressure_norm write:
    max(region0) of error_pres = 0.00385375883412

Courant Number mean: 0.0363476645057 max: 0.0448331437905
Time = 0.27

PIMPLE: iteration 1
DILUPBiCGStab:  Solving for Ux, Initial residual = 0.00374929896767, Final residual = 9.24740556031e-09, No Iterations 4
DILUPBiCGStab:  Solving for Uy, Initial residual = 0.0037492989449, Final residual = 9.25477842244e-09, No Iterations 4
DICPCG:  Solving for p, Initial residual = 0.0393812151714, Final residual = 0.000371140136038, No Iterations 35
time step continuity errors : sum local = 3.74068718787e-10, global = -1.53819803027e-21, cumulative = 6.02055271068e-19
DICPCG:  Solving for p, Initial residual = 0.0318799045484, Final residual = 0.00030970606964, No Iterations 35
time step continuity errors : sum local = 3.08069588036e-10, global = 3.0487541719e-21, cumulative = 6.0510402524e-19
DICPCG:  Solving for p, Initial residual = 0.000542327351163, Final residual = 4.44128700692e-06, No Iterations 84
time step continuity errors : sum local = 4.48519721921e-12, global = 2.36974590857e-20, cumulative = 6.28801484325e-19
DICPCG:  Solving for p, Initial residual = 0.000117097147445, Final residual = 8.98779905987e-13, No Iterations 187
time step continuity errors : sum local = 2.57877349848e-18, global = -3.58730984521e-21, cumulative = 6.2521417448e-19
ExecutionTime = 46.95 s  ClockTime = 109 s

volFieldValue error_velocity_norm write:
    max(region0) of error_velocity_mag = 2.93064214083e-05

volFieldValue L2_error_velocity_norm write:
    sqrt(sum(region0)) of error_velocity_mag_squ = 0.00265213402398

volFieldValue error_pressure_norm write:
    max(region0) of error_pres = 0.00385375883412

Courant Number mean: 0.036076126392 max: 0.0444982143435
Time = 0.27375

PIMPLE: iteration 1
DILUPBiCGStab:  Solving for Ux, Initial residual = 0.00374929899037, Final residual = 9.24736714941e-09, No Iterations 4
DILUPBiCGStab:  Solving for Uy, Initial residual = 0.00374929896775, Final residual = 9.25468167069e-09, No Iterations 4
DICPCG:  Solving for p, Initial residual = 0.0393813143774, Final residual = 0.00037114168628, No Iterations 35
time step continuity errors : sum local = 3.6850229824e-10, global = 1.5707882727e-20, cumulative = 6.40922057207e-19
DICPCG:  Solving for p, Initial residual = 0.0318799816369, Final residual = 0.000309709000961, No Iterations 35
time step continuity errors : sum local = 3.03486697266e-10, global = 1.97306386816e-20, cumulative = 6.60652695889e-19
DICPCG:  Solving for p, Initial residual = 0.000542344011473, Final residual = 4.44083094697e-06, No Iterations 84
time step continuity errors : sum local = 4.41797444601e-12, global = 2.4976973729e-21, cumulative = 6.63150393262e-19
DICPCG:  Solving for p, Initial residual = 0.000117100635734, Final residual = 8.98782318068e-13, No Iterations 187
time step continuity errors : sum local = 2.59629376793e-18, global = -1.43895903221e-21, cumulative = 6.61711434229e-19
ExecutionTime = 47.59 s  ClockTime = 110 s

volFieldValue error_velocity_norm write:
    max(region0) of error_velocity_mag = 2.93064214083e-05

volFieldValue L2_error_velocity_norm write:
    sqrt(sum(region0)) of error_velocity_mag_squ = 0.00265213402398

volFieldValue error_pressure_norm write:
    max(region0) of error_pres = 0.00385375883412

Courant Number mean: 0.035806616819 max: 0.0441657870048
Time = 0.2775

PIMPLE: iteration 1
DILUPBiCGStab:  Solving for Ux, Initial residual = 0.00374929901261, Final residual = 9.24732553571e-09, No Iterations 4
DILUPBiCGStab:  Solving for Uy, Initial residual = 0.00374929899015, Final residual = 9.2545824067e-09, No Iterations 4
DICPCG:  Solving for p, Initial residual = 0.0393814144268, Final residual = 0.000371143283187, No Iterations 35
time step continuity errors : sum local = 3.63018758646e-10, global = -4.33985666095e-21, cumulative = 6.57371577568e-19
DICPCG:  Solving for p, Initial residual = 0.0318800593952, Final residual = 0.000309711795023, No Iterations 35
time step continuity errors : sum local = 2.98971852342e-10, global = 1.42599613823e-21, cumulative = 6.58797573707e-19
DICPCG:  Solving for p, Initial residual = 0.000542360647564, Final residual = 4.44038337286e-06, No Iterations 84
time step continuity errors : sum local = 4.35176734165e-12, global = 1.48500937045e-20, cumulative = 6.73647667411e-19
DICPCG:  Solving for p, Initial residual = 0.000117104150247, Final residual = 8.98828681149e-13, No Iterations 187
time step continuity errors : sum local = 2.56942724526e-18, global = 1.61725453564e-20, cumulative = 6.89820212768e-19
ExecutionTime = 48.2 s  ClockTime = 110 s

volFieldValue error_velocity_norm write:
    max(region0) of error_velocity_mag = 2.93064214083e-05

volFieldValue L2_error_velocity_norm write:
    sqrt(sum(region0)) of error_velocity_mag_squ = 0.00265213402398

volFieldValue error_pressure_norm write:
    max(region0) of error_pres = 0.00385375883412

Courant Number mean: 0.0355391206325 max: 0.0438358430822
Time = 0.28125

PIMPLE: iteration 1
DILUPBiCGStab:  Solving for Ux, Initial residual = 0.00374929903441, Final residual = 9.24728063408e-09, No Iterations 4
DILUPBiCGStab:  Solving for Uy, Initial residual = 0.0037492990121, Final residual = 9.25448079971e-09, No Iterations 4
DICPCG:  Solving for p, Initial residual = 0.0393815153179, Final residual = 0.000371144921344, No Iterations 35
time step continuity errors : sum local = 3.57616859917e-10, global = -7.78061414304e-21, cumulative = 6.82039598625e-19
DICPCG:  Solving for p, Initial residual = 0.0318801377622, Final residual = 0.000309714379729, No Iterations 35
time step continuity errors : sum local = 2.94523977917e-10, global = 2.40929718595e-20, cumulative = 7.06132570484e-19
DICPCG:  Solving for p, Initial residual = 0.000542377199032, Final residual = 4.43994319391e-06, No Iterations 84
time step continuity errors : sum local = 4.28655936962e-12, global = 7.05094786235e-21, cumulative = 7.13183518346e-19
DICPCG:  Solving for p, Initial residual = 0.000117107711217, Final residual = 8.98841499616e-13, No Iterations 187
time step continuity errors : sum local = 2.56989586885e-18, global = -8.32482005165e-21, cumulative = 7.04858698295e-19
ExecutionTime = 48.83 s  ClockTime = 111 s

volFieldValue error_velocity_norm write:
    max(region0) of error_velocity_mag = 2.93064214083e-05

volFieldValue L2_error_velocity_norm write:
    sqrt(sum(region0)) of error_velocity_mag_squ = 0.00265213402398

volFieldValue error_pressure_norm write:
    max(region0) of error_pres = 0.00385375883412

Courant Number mean: 0.0352736227914 max: 0.0435083640234
Time = 0.285

PIMPLE: iteration 1
DILUPBiCGStab:  Solving for Ux, Initial residual = 0.00374929905577, Final residual = 9.2472326394e-09, No Iterations 4
DILUPBiCGStab:  Solving for Uy, Initial residual = 0.00374929903361, Final residual = 9.25437647234e-09, No Iterations 4
DICPCG:  Solving for p, Initial residual = 0.0393816170598, Final residual = 0.000371146555295, No Iterations 35
time step continuity errors : sum local = 3.52295344346e-10, global = 3.35244879801e-21, cumulative = 7.08211147093e-19
DICPCG:  Solving for p, Initial residual = 0.0318802180608, Final residual = 0.000309716933608, No Iterations 35
time step continuity errors : sum local = 2.90142247454e-10, global = 9.38240501746e-21, cumulative = 7.1759355211e-19
DICPCG:  Solving for p, Initial residual = 0.000542394123517, Final residual = 4.4395057735e-06, No Iterations 84
time step continuity errors : sum local = 4.22233108522e-12, global = 5.07556042159e-21, cumulative = 7.22669112532e-19
DICPCG:  Solving for p, Initial residual = 0.000117111319624, Final residual = 8.98875317895e-13, No Iterations 187
time step continuity errors : sum local = 2.55363691403e-18, global = -4.54425635043e-21, cumulative = 7.18124856181e-19
ExecutionTime = 49.47 s  ClockTime = 112 s

volFieldValue error_velocity_norm write:
    max(region0) of error_velocity_mag = 2.93064214083e-05

volFieldValue L2_error_velocity_norm write:
    sqrt(sum(region0)) of error_velocity_mag_squ = 0.00265213402398

volFieldValue error_pressure_norm write:
    max(region0) of error_pres = 0.00385375883412

Courant Number mean: 0.0350101083672 max: 0.0431833314148
Time = 0.28875

PIMPLE: iteration 1
DILUPBiCGStab:  Solving for Ux, Initial residual = 0.0037492990767, Final residual = 9.2471820701e-09, No Iterations 4
DILUPBiCGStab:  Solving for Uy, Initial residual = 0.00374929905469, Final residual = 9.25426982981e-09, No Iterations 4
DICPCG:  Solving for p, Initial residual = 0.0393817196566, Final residual = 0.000371148238863, No Iterations 35
time step continuity errors : sum local = 3.4705306507e-10, global = 1.11046361108e-20, cumulative = 7.29229492292e-19
DICPCG:  Solving for p, Initial residual = 0.0318803002898, Final residual = 0.000309719417342, No Iterations 35
time step continuity errors : sum local = 2.85825641564e-10, global = 4.77313658673e-21, cumulative = 7.34002628879e-19
DICPCG:  Solving for p, Initial residual = 0.00054241125367, Final residual = 4.43908160251e-06, No Iterations 84
time step continuity errors : sum local = 4.1590774377e-12, global = -2.09572839897e-20, cumulative = 7.13045344889e-19
DICPCG:  Solving for p, Initial residual = 0.000117114976183, Final residual = 8.98891299598e-13, No Iterations 187
time step continuity errors : sum local = 2.51623058593e-18, global = -1.64512411602e-21, cumulative = 7.11400220773e-19
ExecutionTime = 50.1 s  ClockTime = 112 s

volFieldValue error_velocity_norm write:
    max(region0) of error_velocity_mag = 2.93064214083e-05

volFieldValue L2_error_velocity_norm write:
    sqrt(sum(region0)) of error_velocity_mag_squ = 0.00265213402398

volFieldValue error_pressure_norm write:
    max(region0) of error_pres = 0.00385375883412

Courant Number mean: 0.0347485625428 max: 0.0428607269801
Time = 0.2925

PIMPLE: iteration 1
DILUPBiCGStab:  Solving for Ux, Initial residual = 0.00374929909721, Final residual = 9.24712894373e-09, No Iterations 4
DILUPBiCGStab:  Solving for Uy, Initial residual = 0.00374929907535, Final residual = 9.25416106505e-09, No Iterations 4
DICPCG:  Solving for p, Initial residual = 0.0393818231137, Final residual = 0.000371149875891, No Iterations 35
time step continuity errors : sum local = 3.41888755505e-10, global = -4.0283621193e-21, cumulative = 7.07371858654e-19
DICPCG:  Solving for p, Initial residual = 0.0318803842483, Final residual = 0.000309721749755, No Iterations 35
time step continuity errors : sum local = 2.81573120844e-10, global = -1.57404165542e-20, cumulative = 6.916314421e-19
DICPCG:  Solving for p, Initial residual = 0.000542428518649, Final residual = 4.4386697227e-06, No Iterations 84
time step continuity errors : sum local = 4.09678264502e-12, global = 2.05817509244e-20, cumulative = 7.12213193024e-19
DICPCG:  Solving for p, Initial residual = 0.000117118671949, Final residual = 8.98960131916e-13, No Iterations 187
time step continuity errors : sum local = 2.48070365208e-18, global = 2.99794361185e-21, cumulative = 7.15211136636e-19
ExecutionTime = 50.73 s  ClockTime = 113 s

volFieldValue error_velocity_norm write:
    max(region0) of error_velocity_mag = 2.93064214083e-05

volFieldValue L2_error_velocity_norm write:
    sqrt(sum(region0)) of error_velocity_mag_squ = 0.00265213402398

volFieldValue error_pressure_norm write:
    max(region0) of error_pres = 0.00385375883412

Courant Number mean: 0.0344889706118 max: 0.0425405325798
Time = 0.29625

PIMPLE: iteration 1
DILUPBiCGStab:  Solving for Ux, Initial residual = 0.00374929911731, Final residual = 9.24707306119e-09, No Iterations 4
DILUPBiCGStab:  Solving for Uy, Initial residual = 0.0037492990956, Final residual = 9.25405005676e-09, No Iterations 4
DICPCG:  Solving for p, Initial residual = 0.0393819274382, Final residual = 0.000371151599208, No Iterations 35
time step continuity errors : sum local = 3.36801371524e-10, global = 3.61760585412e-21, cumulative = 7.1882874249e-19
DICPCG:  Solving for p, Initial residual = 0.0318804689561, Final residual = 0.000309724011263, No Iterations 35
time step continuity errors : sum local = 2.77383809511e-10, global = -6.69193034447e-21, cumulative = 7.12136812146e-19
DICPCG:  Solving for p, Initial residual = 0.000542446146496, Final residual = 4.43826659317e-06, No Iterations 84
time step continuity errors : sum local = 4.03542878119e-12, global = -5.39610838401e-22, cumulative = 7.11597201307e-19
DICPCG:  Solving for p, Initial residual = 0.000117122391328, Final residual = 8.9892761415e-13, No Iterations 187
time step continuity errors : sum local = 2.5123921781e-18, global = 8.27338832808e-21, cumulative = 7.19870589635e-19
ExecutionTime = 51.36 s  ClockTime = 114 s

volFieldValue error_velocity_norm write:
    max(region0) of error_velocity_mag = 2.93064214083e-05

volFieldValue L2_error_velocity_norm write:
    sqrt(sum(region0)) of error_velocity_mag_squ = 0.00265213402398

volFieldValue error_pressure_norm write:
    max(region0) of error_pres = 0.00385375883412

Courant Number mean: 0.0342313179776 max: 0.0422227302097
Time = 0.3

PIMPLE: iteration 1
DILUPBiCGStab:  Solving for Ux, Initial residual = 0.00374929913702, Final residual = 9.24701456702e-09, No Iterations 4
DILUPBiCGStab:  Solving for Uy, Initial residual = 0.00374929911546, Final residual = 9.25393707406e-09, No Iterations 4
DICPCG:  Solving for p, Initial residual = 0.0393820326365, Final residual = 0.000371153262648, No Iterations 35
time step continuity errors : sum local = 3.3178964037e-10, global = 1.25261135555e-20, cumulative = 7.32396703191e-19
DICPCG:  Solving for p, Initial residual = 0.0318805542799, Final residual = 0.000309726269798, No Iterations 35
time step continuity errors : sum local = 2.73256825021e-10, global = 1.00521833795e-20, cumulative = 7.4244888657e-19
DICPCG:  Solving for p, Initial residual = 0.000542464222559, Final residual = 4.43786576774e-06, No Iterations 84
time step continuity errors : sum local = 3.97499566544e-12, global = 1.81234832536e-21, cumulative = 7.44261234896e-19
DICPCG:  Solving for p, Initial residual = 0.00011712612324, Final residual = 8.98966303654e-13, No Iterations 187
time step continuity errors : sum local = 2.4838304594e-18, global = -8.12041461769e-21, cumulative = 7.36140820278e-19
ExecutionTime = 52.01 s  ClockTime = 115 s

volFieldValue error_velocity_norm write:
    max(region0) of error_velocity_mag = 2.93064214083e-05

volFieldValue L2_error_velocity_norm write:
    sqrt(sum(region0)) of error_velocity_mag_squ = 0.00265213402398

volFieldValue error_pressure_norm write:
    max(region0) of error_pres = 0.00385375883412

End

