/*---------------------------------------------------------------------------*\
| =========                 |                                                 |
| \\      /  F ield         | OpenFOAM: The Open Source CFD Toolbox           |
|  \\    /   O peration     | Version:  2406                                  |
|   \\  /    A nd           | Website:  www.openfoam.com                      |
|    \\/     M anipulation  |                                                 |
\*---------------------------------------------------------------------------*/
Build  : _630d60de3b-20240620 OPENFOAM=2406 version=v2406
Arch   : "LSB;label=32;scalar=64"
Exec   : RK4Foam
Date   : Sep 06 2024
Time   : 11:32:24
Host   : hakan-X556UQK
PID    : 35096
I/O    : uncollated
Case   : /home/hakan/courses/testSimulation/tgv2dTests/tgv2d_temporal/RK4Foam/RK4Foam_nu0.0000001/TGV_temporal
nProcs : 1
trapFpe: Floating point exception trapping enabled (FOAM_SIGFPE).
fileModificationChecking : Monitoring run-time modified files using timeStampMaster (fileModificationSkew 5, maxFileModificationPolls 20)
allowSystemOperations : Allowing user-supplied system call operations

// * * * * * * * * * * * * * * * * * * * * * * * * * * * * * * * * * * * * * //
Create time

Create mesh for time = 0


PIMPLE: Operating solver in PISO mode

Reading field p

Using #codeStream at line 19 in file "0/p"
Using #codeStream with "/home/hakan/courses/testSimulation/tgv2dTests/tgv2d_temporal/RK4Foam/RK4Foam_nu0.0000001/TGV_temporal/dynamicCode/platforms/linux64GccDPInt32Opt/lib/libcodeStream_537564b8bd232f4ddf4797bc6f60eef024868c2e.so"
Creating new library in "dynamicCode/_537564b8bd232f4ddf4797bc6f60eef024868c2e/platforms/linux64GccDPInt32Opt/lib/libcodeStream_537564b8bd232f4ddf4797bc6f60eef024868c2e.so"
Invoking wmake libso /home/hakan/courses/testSimulation/tgv2dTests/tgv2d_temporal/RK4Foam/RK4Foam_nu0.0000001/TGV_temporal/dynamicCode/_537564b8bd232f4ddf4797bc6f60eef024868c2e
wmake libso /home/hakan/courses/testSimulation/tgv2dTests/tgv2d_temporal/RK4Foam/RK4Foam_nu0.0000001/TGV_temporal/dynamicCode/_537564b8bd232f4ddf4797bc6f60eef024868c2e
    dep: codeStreamTemplate.C
    Ctoo: codeStreamTemplate.C
    link: /home/hakan/courses/testSimulation/tgv2dTests/tgv2d_temporal/RK4Foam/RK4Foam_nu0.0000001/TGV_temporal/dynamicCode/_537564b8bd232f4ddf4797bc6f60eef024868c2e/../platforms/linux64GccDPInt32Opt/lib/libcodeStream_537564b8bd232f4ddf4797bc6f60eef024868c2e.so
Reading field U

Using #codeStream at line 19 in file "0/U"
Using #codeStream with "/home/hakan/courses/testSimulation/tgv2dTests/tgv2d_temporal/RK4Foam/RK4Foam_nu0.0000001/TGV_temporal/dynamicCode/platforms/linux64GccDPInt32Opt/lib/libcodeStream_18dd48bdf5aea29696d9cbfe8eb27bc690b7dc03.so"
Creating new library in "dynamicCode/_18dd48bdf5aea29696d9cbfe8eb27bc690b7dc03/platforms/linux64GccDPInt32Opt/lib/libcodeStream_18dd48bdf5aea29696d9cbfe8eb27bc690b7dc03.so"
Invoking wmake libso /home/hakan/courses/testSimulation/tgv2dTests/tgv2d_temporal/RK4Foam/RK4Foam_nu0.0000001/TGV_temporal/dynamicCode/_18dd48bdf5aea29696d9cbfe8eb27bc690b7dc03
wmake libso /home/hakan/courses/testSimulation/tgv2dTests/tgv2d_temporal/RK4Foam/RK4Foam_nu0.0000001/TGV_temporal/dynamicCode/_18dd48bdf5aea29696d9cbfe8eb27bc690b7dc03
    dep: codeStreamTemplate.C
    Ctoo: codeStreamTemplate.C
    link: /home/hakan/courses/testSimulation/tgv2dTests/tgv2d_temporal/RK4Foam/RK4Foam_nu0.0000001/TGV_temporal/dynamicCode/_18dd48bdf5aea29696d9cbfe8eb27bc690b7dc03/../platforms/linux64GccDPInt32Opt/lib/libcodeStream_18dd48bdf5aea29696d9cbfe8eb27bc690b7dc03.so
Reading/calculating face flux field phi

Selecting incompressible transport model Newtonian
Selecting turbulence model type laminar
Selecting laminar stress model Stokes
Reading explicit source from transportProperties


 delPx = 0
 delPy = 0
 delPz = 0
No MRF models present

No finite volume options present
Courant Number mean: 0.0618980796527 max: 0.0763483625043
Courant Number mean: 0.0618980796527 max: 0.0763483625043

Starting time loop


Define RK4 coeff.

 b1 = 0.166666666667
 b2 = 0.333333333333
 b3 = 0.333333333333
 b4 = 0.166666666667
Using dynamicCode for functionObject diff at line 51 in "/home/hakan/courses/testSimulation/tgv2dTests/tgv2d_temporal/RK4Foam/RK4Foam_nu0.0000001/TGV_temporal/system/controlDict/functions/diff"
Creating new library in "dynamicCode/diff/platforms/linux64GccDPInt32Opt/lib/libdiff_d924c92ec3fe0b16fec6b8892a9fc1c20fa93dd8.so"
Invoking wmake libso /home/hakan/courses/testSimulation/tgv2dTests/tgv2d_temporal/RK4Foam/RK4Foam_nu0.0000001/TGV_temporal/dynamicCode/diff
wmake libso /home/hakan/courses/testSimulation/tgv2dTests/tgv2d_temporal/RK4Foam/RK4Foam_nu0.0000001/TGV_temporal/dynamicCode/diff
    dep: functionObjectTemplate.C
    Ctoo: functionObjectTemplate.C
    link: /home/hakan/courses/testSimulation/tgv2dTests/tgv2d_temporal/RK4Foam/RK4Foam_nu0.0000001/TGV_temporal/dynamicCode/diff/../platforms/linux64GccDPInt32Opt/lib/libdiff_d924c92ec3fe0b16fec6b8892a9fc1c20fa93dd8.so
Courant Number mean: 0.0618980796527 max: 0.0763483625043
Time = 0.00375

time step continuity errors : sum local = 1.99356816892e-14, global = 2.79516733735e-20, cumulative = 2.79516733735e-20
DICPCG:  Solving for p, Initial residual = 0.334136523672, Final residual = 0.00314616825175, No Iterations 35
time step continuity errors : sum local = 4.00450663935e-08, global = -2.38307966387e-20, cumulative = 4.12087673478e-21
DICPCG:  Solving for p, Initial residual = 0.00472620655844, Final residual = 4.20083472818e-05, No Iterations 82
time step continuity errors : sum local = 1.37389747494e-08, global = 1.03535986105e-20, cumulative = 1.44744753453e-20
DICPCG:  Solving for p, Initial residual = 0.333335480855, Final residual = 0.00315108189243, No Iterations 35
time step continuity errors : sum local = 4.53233137837e-08, global = 3.48674877615e-20, cumulative = 4.93419631068e-20
DICPCG:  Solving for p, Initial residual = 0.00236243118306, Final residual = 2.08564745879e-05, No Iterations 82
ExecutionTime = 0.35 s  ClockTime = 26 s

    Reading error_velocity_mag (volScalarField)
    Reading error_velocity_mag_squ (volScalarField)
    Reading error_pres (volScalarField)
volFieldValue error_velocity_norm write:
    max(region0) of error_velocity_mag = 6.40291536764e-06

volFieldValue L2_error_velocity_norm write:
    sqrt(sum(region0)) of error_velocity_mag_squ = 0.000576919916446

volFieldValue error_pressure_norm write:
    max(region0) of error_pres = 0.000905541396159

Courant Number mean: 0.0618980788309 max: 0.0763483670532
Time = 0.0075

time step continuity errors : sum local = 2.73737041779e-08, global = -1.09640773427e-20, cumulative = 3.8377885764e-20
DICPCG:  Solving for p, Initial residual = 0.33119864584, Final residual = 0.00311868347954, No Iterations 35
time step continuity errors : sum local = 3.97756582436e-08, global = 1.20036009302e-20, cumulative = 5.03814866943e-20
DICPCG:  Solving for p, Initial residual = 0.00466424435213, Final residual = 4.14786839446e-05, No Iterations 82
time step continuity errors : sum local = 1.38106638864e-08, global = 3.18651795055e-20, cumulative = 8.22466661997e-20
DICPCG:  Solving for p, Initial residual = 0.332268550756, Final residual = 0.00314065769993, No Iterations 35
time step continuity errors : sum local = 4.53612339521e-08, global = -1.32712243142e-20, cumulative = 6.89754418855e-20
DICPCG:  Solving for p, Initial residual = 0.00235650496771, Final residual = 2.08072330596e-05, No Iterations 82
ExecutionTime = 0.62 s  ClockTime = 26 s

volFieldValue error_velocity_norm write:
    max(region0) of error_velocity_mag = 6.40291536764e-06

volFieldValue L2_error_velocity_norm write:
    sqrt(sum(region0)) of error_velocity_mag_squ = 0.000576919916446

volFieldValue error_pressure_norm write:
    max(region0) of error_pres = 0.000905541396159

Courant Number mean: 0.0618980777288 max: 0.0763483682501
Time = 0.01125

time step continuity errors : sum local = 2.7449215226e-08, global = 2.26776254454e-20, cumulative = 9.16530673309e-20
DICPCG:  Solving for p, Initial residual = 0.332262948098, Final residual = 0.00312915062754, No Iterations 35
time step continuity errors : sum local = 3.99414072129e-08, global = -2.59993538749e-20, cumulative = 6.56537134559e-20
DICPCG:  Solving for p, Initial residual = 0.00468743357937, Final residual = 3.71663259244e-05, No Iterations 82
time step continuity errors : sum local = 1.38160656801e-08, global = -1.77386815275e-20, cumulative = 4.79150319284e-20
DICPCG:  Solving for p, Initial residual = 0.332265961265, Final residual = 0.00314314148517, No Iterations 35
time step continuity errors : sum local = 4.53665516415e-08, global = 7.92516047744e-21, cumulative = 5.58401924059e-20
DICPCG:  Solving for p, Initial residual = 0.00235840293914, Final residual = 1.87660112353e-05, No Iterations 82
ExecutionTime = 0.9 s  ClockTime = 26 s

volFieldValue error_velocity_norm write:
    max(region0) of error_velocity_mag = 6.40291536764e-06

volFieldValue L2_error_velocity_norm write:
    sqrt(sum(region0)) of error_velocity_mag_squ = 0.000576919916446

volFieldValue error_pressure_norm write:
    max(region0) of error_pres = 0.000905541396159

Courant Number mean: 0.0618980766173 max: 0.0763483694716
Time = 0.015

time step continuity errors : sum local = 2.74553828939e-08, global = 4.52329539981e-20, cumulative = 1.01073146404e-19
DICPCG:  Solving for p, Initial residual = 0.33226522514, Final residual = 0.00312922547666, No Iterations 35
time step continuity errors : sum local = 3.99414996507e-08, global = -8.77118141572e-21, cumulative = 9.23019649882e-20
DICPCG:  Solving for p, Initial residual = 0.0046877230951, Final residual = 4.09393293677e-05, No Iterations 82
time step continuity errors : sum local = 1.38190103657e-08, global = -5.20807754015e-21, cumulative = 8.70938874481e-20
DICPCG:  Solving for p, Initial residual = 0.332265695063, Final residual = 0.00314085140484, No Iterations 35
time step continuity errors : sum local = 4.53662373179e-08, global = -3.70511309631e-21, cumulative = 8.33887743518e-20
DICPCG:  Solving for p, Initial residual = 0.00235667643485, Final residual = 2.0077413318e-05, No Iterations 82
ExecutionTime = 1.22 s  ClockTime = 27 s

volFieldValue error_velocity_norm write:
    max(region0) of error_velocity_mag = 6.40291536764e-06

volFieldValue L2_error_velocity_norm write:
    sqrt(sum(region0)) of error_velocity_mag_squ = 0.000576919916446

volFieldValue error_pressure_norm write:
    max(region0) of error_pres = 0.000905541396159

Courant Number mean: 0.0618980755065 max: 0.0763483706526
Time = 0.01875

time step continuity errors : sum local = 2.74604507876e-08, global = 4.24241483913e-20, cumulative = 1.25812922743e-19
DICPCG:  Solving for p, Initial residual = 0.332265280174, Final residual = 0.00312946007154, No Iterations 35
time step continuity errors : sum local = 3.99408176265e-08, global = -1.06142840922e-20, cumulative = 1.15198638651e-19
DICPCG:  Solving for p, Initial residual = 0.00468803422141, Final residual = 4.16854077699e-05, No Iterations 82
time step continuity errors : sum local = 1.3821609247e-08, global = -4.89525496211e-20, cumulative = 6.62460890297e-20
DICPCG:  Solving for p, Initial residual = 0.332265618251, Final residual = 0.00314070795566, No Iterations 35
time step continuity errors : sum local = 4.53673298792e-08, global = 3.10931803706e-21, cumulative = 6.93554070668e-20
DICPCG:  Solving for p, Initial residual = 0.00235656916108, Final residual = 2.080163356e-05, No Iterations 82
ExecutionTime = 1.47 s  ClockTime = 27 s

volFieldValue error_velocity_norm write:
    max(region0) of error_velocity_mag = 6.40291536764e-06

volFieldValue L2_error_velocity_norm write:
    sqrt(sum(region0)) of error_velocity_mag_squ = 0.000576919916446

volFieldValue error_pressure_norm write:
    max(region0) of error_pres = 0.000905541396159

Courant Number mean: 0.0618980743956 max: 0.0763483720241
Time = 0.0225

time step continuity errors : sum local = 2.7464723038e-08, global = -1.2442904242e-20, cumulative = 5.69125028248e-20
DICPCG:  Solving for p, Initial residual = 0.332265274911, Final residual = 0.00312965876012, No Iterations 35
time step continuity errors : sum local = 3.9941843907e-08, global = 4.45776196622e-20, cumulative = 1.01490122487e-19
DICPCG:  Solving for p, Initial residual = 0.00468829529857, Final residual = 4.16842719219e-05, No Iterations 82
time step continuity errors : sum local = 1.38243083233e-08, global = -2.53289335736e-20, cumulative = 7.61611889133e-20
DICPCG:  Solving for p, Initial residual = 0.332265547006, Final residual = 0.00314070656717, No Iterations 35
time step continuity errors : sum local = 4.53675155584e-08, global = 6.2938647548e-21, cumulative = 8.24550536681e-20
DICPCG:  Solving for p, Initial residual = 0.00235656985861, Final residual = 2.07965611115e-05, No Iterations 82
ExecutionTime = 1.72 s  ClockTime = 27 s

volFieldValue error_velocity_norm write:
    max(region0) of error_velocity_mag = 6.40291536764e-06

volFieldValue L2_error_velocity_norm write:
    sqrt(sum(region0)) of error_velocity_mag_squ = 0.000576919916446

volFieldValue error_pressure_norm write:
    max(region0) of error_pres = 0.000905541396159

Courant Number mean: 0.0618980732846 max: 0.0763483734355
Time = 0.02625

time step continuity errors : sum local = 2.74677497708e-08, global = 1.64988163198e-20, cumulative = 9.89538699879e-20
DICPCG:  Solving for p, Initial residual = 0.33226520514, Final residual = 0.00312958589864, No Iterations 35
time step continuity errors : sum local = 3.9941556471e-08, global = -2.96811340114e-20, cumulative = 6.92727359765e-20
DICPCG:  Solving for p, Initial residual = 0.00468820853518, Final residual = 4.13386547328e-05, No Iterations 82
time step continuity errors : sum local = 1.38266440819e-08, global = 3.6624298716e-20, cumulative = 1.05897034693e-19
DICPCG:  Solving for p, Initial residual = 0.33226548594, Final residual = 0.00314075398315, No Iterations 35
time step continuity errors : sum local = 4.53678286626e-08, global = 2.08604706293e-20, cumulative = 1.26757505322e-19
DICPCG:  Solving for p, Initial residual = 0.00235660832212, Final residual = 2.05884504286e-05, No Iterations 82
ExecutionTime = 1.98 s  ClockTime = 27 s

volFieldValue error_velocity_norm write:
    max(region0) of error_velocity_mag = 6.40291536764e-06

volFieldValue L2_error_velocity_norm write:
    sqrt(sum(region0)) of error_velocity_mag_squ = 0.000576919916446

volFieldValue error_pressure_norm write:
    max(region0) of error_pres = 0.000905541396159

Courant Number mean: 0.0618980721736 max: 0.0763483748539
Time = 0.03

time step continuity errors : sum local = 2.74698767205e-08, global = -1.14452190651e-20, cumulative = 1.15312286257e-19
DICPCG:  Solving for p, Initial residual = 0.332265126149, Final residual = 0.00312956335172, No Iterations 35
time step continuity errors : sum local = 3.99421193809e-08, global = -3.72120479271e-22, cumulative = 1.14940165777e-19
DICPCG:  Solving for p, Initial residual = 0.00468820713132, Final residual = 4.16857695502e-05, No Iterations 82
time step continuity errors : sum local = 1.38284881435e-08, global = 4.45832517559e-20, cumulative = 1.59523417533e-19
DICPCG:  Solving for p, Initial residual = 0.332265447131, Final residual = 0.0031406979159, No Iterations 35
time step continuity errors : sum local = 4.53676949673e-08, global = 4.1053135858e-20, cumulative = 2.00576553391e-19
DICPCG:  Solving for p, Initial residual = 0.00235656492684, Final residual = 2.07641314126e-05, No Iterations 82
ExecutionTime = 2.26 s  ClockTime = 28 s

volFieldValue error_velocity_norm write:
    max(region0) of error_velocity_mag = 6.40291536764e-06

volFieldValue L2_error_velocity_norm write:
    sqrt(sum(region0)) of error_velocity_mag_squ = 0.000576919916446

volFieldValue error_pressure_norm write:
    max(region0) of error_pres = 0.000905541396159

Courant Number mean: 0.0618980710629 max: 0.0763483762482
Time = 0.03375

time step continuity errors : sum local = 2.74718037855e-08, global = -1.88755598782e-20, cumulative = 1.81700993513e-19
DICPCG:  Solving for p, Initial residual = 0.332265108568, Final residual = 0.00312954362682, No Iterations 35
time step continuity errors : sum local = 3.99413146143e-08, global = 9.1159460111e-22, cumulative = 1.82612588114e-19
DICPCG:  Solving for p, Initial residual = 0.00468816144763, Final residual = 4.16922309186e-05, No Iterations 82
time step continuity errors : sum local = 1.38298762838e-08, global = 3.1896156021e-20, cumulative = 2.14508744135e-19
DICPCG:  Solving for p, Initial residual = 0.332265409846, Final residual = 0.00314069594496, No Iterations 35
time step continuity errors : sum local = 4.53678763668e-08, global = 2.20898762343e-20, cumulative = 2.36598620369e-19
DICPCG:  Solving for p, Initial residual = 0.00235656406802, Final residual = 2.07333064357e-05, No Iterations 82
ExecutionTime = 2.63 s  ClockTime = 28 s

volFieldValue error_velocity_norm write:
    max(region0) of error_velocity_mag = 6.40291536764e-06

volFieldValue L2_error_velocity_norm write:
    sqrt(sum(region0)) of error_velocity_mag_squ = 0.000576919916446

volFieldValue error_pressure_norm write:
    max(region0) of error_pres = 0.000905541396159

Courant Number mean: 0.0618980699522 max: 0.0763483776415
Time = 0.0375

time step continuity errors : sum local = 2.74732904599e-08, global = -1.52895253353e-20, cumulative = 2.21309095034e-19
DICPCG:  Solving for p, Initial residual = 0.33226507318, Final residual = 0.00312950979655, No Iterations 35
time step continuity errors : sum local = 3.99402323322e-08, global = -7.4500531412e-21, cumulative = 2.13859041893e-19
DICPCG:  Solving for p, Initial residual = 0.0046881139281, Final residual = 3.74506072693e-05, No Iterations 82
time step continuity errors : sum local = 1.38326097172e-08, global = 3.87182307102e-20, cumulative = 2.52577272603e-19
DICPCG:  Solving for p, Initial residual = 0.332265551463, Final residual = 0.00314325122166, No Iterations 35
time step continuity errors : sum local = 4.53717579753e-08, global = -2.90905687535e-20, cumulative = 2.2348670385e-19
DICPCG:  Solving for p, Initial residual = 0.00235849643493, Final residual = 2.00339478261e-05, No Iterations 82
ExecutionTime = 2.96 s  ClockTime = 28 s

volFieldValue error_velocity_norm write:
    max(region0) of error_velocity_mag = 6.40291536764e-06

volFieldValue L2_error_velocity_norm write:
    sqrt(sum(region0)) of error_velocity_mag_squ = 0.000576919916446

volFieldValue error_pressure_norm write:
    max(region0) of error_pres = 0.000905541396159

Courant Number mean: 0.0618980688415 max: 0.0763483790439
Time = 0.04125

time step continuity errors : sum local = 2.74740580768e-08, global = 4.06621076354e-20, cumulative = 2.64148811485e-19
DICPCG:  Solving for p, Initial residual = 0.33226497114, Final residual = 0.00312960832795, No Iterations 35
time step continuity errors : sum local = 3.99442482579e-08, global = 5.80628635385e-21, cumulative = 2.69955097839e-19
DICPCG:  Solving for p, Initial residual = 0.00468828466669, Final residual = 4.15152364147e-05, No Iterations 82
time step continuity errors : sum local = 1.3831657349e-08, global = 2.54160298804e-20, cumulative = 2.95371127719e-19
DICPCG:  Solving for p, Initial residual = 0.332265356983, Final residual = 0.00314072798869, No Iterations 35
time step continuity errors : sum local = 4.53681483398e-08, global = 1.00927119826e-20, cumulative = 3.05463839702e-19
DICPCG:  Solving for p, Initial residual = 0.00235659013751, Final residual = 2.07678643722e-05, No Iterations 82
ExecutionTime = 3.2 s  ClockTime = 29 s

volFieldValue error_velocity_norm write:
    max(region0) of error_velocity_mag = 6.40291536764e-06

volFieldValue L2_error_velocity_norm write:
    sqrt(sum(region0)) of error_velocity_mag_squ = 0.000576919916446

volFieldValue error_pressure_norm write:
    max(region0) of error_pres = 0.000905541396159

Courant Number mean: 0.0618980677313 max: 0.0763483804079
Time = 0.045

time step continuity errors : sum local = 2.74751132833e-08, global = 2.32444554511e-21, cumulative = 3.07788285247e-19
DICPCG:  Solving for p, Initial residual = 0.332265036123, Final residual = 0.00312950192453, No Iterations 35
time step continuity errors : sum local = 3.99396753736e-08, global = 2.72567188024e-20, cumulative = 3.35045004049e-19
DICPCG:  Solving for p, Initial residual = 0.00468808992313, Final residual = 4.16961747562e-05, No Iterations 82
time step continuity errors : sum local = 1.38323867529e-08, global = 3.26772067351e-20, cumulative = 3.67722210785e-19
DICPCG:  Solving for p, Initial residual = 0.332265336566, Final residual = 0.00314068850935, No Iterations 35
time step continuity errors : sum local = 4.53687384285e-08, global = 1.72663902382e-20, cumulative = 3.84988601023e-19
DICPCG:  Solving for p, Initial residual = 0.00235655940701, Final residual = 2.07950977626e-05, No Iterations 82
ExecutionTime = 3.44 s  ClockTime = 29 s

volFieldValue error_velocity_norm write:
    max(region0) of error_velocity_mag = 6.40291536764e-06

volFieldValue L2_error_velocity_norm write:
    sqrt(sum(region0)) of error_velocity_mag_squ = 0.000576919916446

volFieldValue error_pressure_norm write:
    max(region0) of error_pres = 0.000905541396159

Courant Number mean: 0.0618980666211 max: 0.076348381785
Time = 0.04875

time step continuity errors : sum local = 2.74759598011e-08, global = -5.10082638364e-20, cumulative = 3.33980337186e-19
DICPCG:  Solving for p, Initial residual = 0.332265010932, Final residual = 0.00312962916324, No Iterations 35
time step continuity errors : sum local = 3.99407779862e-08, global = 1.51780903377e-20, cumulative = 3.49158427524e-19
DICPCG:  Solving for p, Initial residual = 0.00468828082369, Final residual = 3.85439771176e-05, No Iterations 82
time step continuity errors : sum local = 1.38328746458e-08, global = -2.74339286091e-20, cumulative = 3.21724498915e-19
DICPCG:  Solving for p, Initial residual = 0.332265304022, Final residual = 0.00314121335271, No Iterations 35
time step continuity errors : sum local = 4.53693034282e-08, global = 4.91367995449e-20, cumulative = 3.7086129846e-19
DICPCG:  Solving for p, Initial residual = 0.00235697152587, Final residual = 1.84521943538e-05, No Iterations 82
ExecutionTime = 3.68 s  ClockTime = 29 s

volFieldValue error_velocity_norm write:
    max(region0) of error_velocity_mag = 6.40291536764e-06

volFieldValue L2_error_velocity_norm write:
    sqrt(sum(region0)) of error_velocity_mag_squ = 0.000576919916446

volFieldValue error_pressure_norm write:
    max(region0) of error_pres = 0.000905541396159

Courant Number mean: 0.0618980655106 max: 0.0763483832494
Time = 0.0525

time step continuity errors : sum local = 2.74753772694e-08, global = 7.92878110913e-21, cumulative = 3.78790079569e-19
DICPCG:  Solving for p, Initial residual = 0.332264808203, Final residual = 0.00312970236667, No Iterations 35
time step continuity errors : sum local = 3.9943871175e-08, global = 4.4965027253e-20, cumulative = 4.23755106822e-19
DICPCG:  Solving for p, Initial residual = 0.00468849851965, Final residual = 4.15609490577e-05, No Iterations 82
time step continuity errors : sum local = 1.38331249012e-08, global = 1.65378384872e-20, cumulative = 4.40292945309e-19
DICPCG:  Solving for p, Initial residual = 0.332265312849, Final residual = 0.00314072787018, No Iterations 35
time step continuity errors : sum local = 4.53682938805e-08, global = 1.2299688144e-20, cumulative = 4.52592633453e-19
DICPCG:  Solving for p, Initial residual = 0.00235658936443, Final residual = 2.07933992565e-05, No Iterations 82
ExecutionTime = 3.93 s  ClockTime = 29 s

volFieldValue error_velocity_norm write:
    max(region0) of error_velocity_mag = 6.40291536764e-06

volFieldValue L2_error_velocity_norm write:
    sqrt(sum(region0)) of error_velocity_mag_squ = 0.000576919916446

volFieldValue error_pressure_norm write:
    max(region0) of error_pres = 0.000905541396159

Courant Number mean: 0.0618980644013 max: 0.0763483845144
Time = 0.05625

time step continuity errors : sum local = 2.74762124193e-08, global = 3.97730414093e-20, cumulative = 4.92365674863e-19
DICPCG:  Solving for p, Initial residual = 0.332265016256, Final residual = 0.00312952780525, No Iterations 35
time step continuity errors : sum local = 3.99396632431e-08, global = -1.17722827945e-20, cumulative = 4.80593392068e-19
DICPCG:  Solving for p, Initial residual = 0.00468809969724, Final residual = 4.16861386733e-05, No Iterations 82
time step continuity errors : sum local = 1.38334996378e-08, global = 2.57624036454e-20, cumulative = 5.06355795713e-19
DICPCG:  Solving for p, Initial residual = 0.33226530098, Final residual = 0.00314068817005, No Iterations 35
time step continuity errors : sum local = 4.53681651573e-08, global = 1.31263990466e-20, cumulative = 5.1948219476e-19
DICPCG:  Solving for p, Initial residual = 0.00235655986414, Final residual = 2.07946859393e-05, No Iterations 82
ExecutionTime = 4.16 s  ClockTime = 30 s

volFieldValue error_velocity_norm write:
    max(region0) of error_velocity_mag = 6.40291536764e-06

volFieldValue L2_error_velocity_norm write:
    sqrt(sum(region0)) of error_velocity_mag_squ = 0.000576919916446

volFieldValue error_pressure_norm write:
    max(region0) of error_pres = 0.000905541396159

Courant Number mean: 0.0618980632919 max: 0.076348385854
Time = 0.06

time step continuity errors : sum local = 2.74769104216e-08, global = -2.12531080215e-21, cumulative = 5.17356883958e-19
DICPCG:  Solving for p, Initial residual = 0.332264976162, Final residual = 0.00312959632395, No Iterations 35
time step continuity errors : sum local = 3.99401333033e-08, global = -1.6160488403e-20, cumulative = 5.01196395555e-19
DICPCG:  Solving for p, Initial residual = 0.00468822064759, Final residual = 4.15956334582e-05, No Iterations 82
time step continuity errors : sum local = 1.38339105243e-08, global = 4.27154080962e-20, cumulative = 5.43911803651e-19
DICPCG:  Solving for p, Initial residual = 0.332265283868, Final residual = 0.00314071934952, No Iterations 35
time step continuity errors : sum local = 4.53686342493e-08, global = -1.42081633372e-20, cumulative = 5.29703640314e-19
DICPCG:  Solving for p, Initial residual = 0.00235658431899, Final residual = 2.0801048873e-05, No Iterations 82
ExecutionTime = 4.41 s  ClockTime = 30 s

volFieldValue error_velocity_norm write:
    max(region0) of error_velocity_mag = 6.40291536764e-06

volFieldValue L2_error_velocity_norm write:
    sqrt(sum(region0)) of error_velocity_mag_squ = 0.000576919916446

volFieldValue error_pressure_norm write:
    max(region0) of error_pres = 0.000905541396159

Courant Number mean: 0.0618980621827 max: 0.0763483872057
Time = 0.06375

time step continuity errors : sum local = 2.74775151356e-08, global = 3.95815502221e-20, cumulative = 5.69285190536e-19
DICPCG:  Solving for p, Initial residual = 0.33226496351, Final residual = 0.00312960042947, No Iterations 35
time step continuity errors : sum local = 3.99400482125e-08, global = 3.6181777065e-20, cumulative = 6.05466967601e-19
DICPCG:  Solving for p, Initial residual = 0.00468823220635, Final residual = 3.98535434823e-05, No Iterations 82
time step continuity errors : sum local = 1.38341958946e-08, global = -2.07850408024e-20, cumulative = 5.84681926799e-19
DICPCG:  Solving for p, Initial residual = 0.332265257789, Final residual = 0.00314096266533, No Iterations 35
time step continuity errors : sum local = 4.53692214432e-08, global = -3.60260899023e-20, cumulative = 5.48655836896e-19
DICPCG:  Solving for p, Initial residual = 0.00235677240762, Final residual = 2.07949922007e-05, No Iterations 82
ExecutionTime = 4.65 s  ClockTime = 30 s

volFieldValue error_velocity_norm write:
    max(region0) of error_velocity_mag = 6.40291536764e-06

volFieldValue L2_error_velocity_norm write:
    sqrt(sum(region0)) of error_velocity_mag_squ = 0.000576919916446

volFieldValue error_pressure_norm write:
    max(region0) of error_pres = 0.000905541396159

Courant Number mean: 0.0618980610738 max: 0.0763483885531
Time = 0.0675

time step continuity errors : sum local = 2.74779881298e-08, global = 1.99597379233e-20, cumulative = 5.6861557482e-19
DICPCG:  Solving for p, Initial residual = 0.332264951666, Final residual = 0.0031296142197, No Iterations 35
time step continuity errors : sum local = 3.9940462827e-08, global = 4.65492547637e-21, cumulative = 5.73270500296e-19
DICPCG:  Solving for p, Initial residual = 0.00468825635143, Final residual = 4.14242436643e-05, No Iterations 82
time step continuity errors : sum local = 1.38346586799e-08, global = 1.79583331834e-20, cumulative = 5.91228833479e-19
DICPCG:  Solving for p, Initial residual = 0.332265263048, Final residual = 0.00314073405733, No Iterations 35
time step continuity errors : sum local = 4.53692018802e-08, global = -3.36300363082e-20, cumulative = 5.57598797171e-19
DICPCG:  Solving for p, Initial residual = 0.00235659597545, Final residual = 2.07597011307e-05, No Iterations 82
ExecutionTime = 4.89 s  ClockTime = 30 s

volFieldValue error_velocity_norm write:
    max(region0) of error_velocity_mag = 6.40291536764e-06

volFieldValue L2_error_velocity_norm write:
    sqrt(sum(region0)) of error_velocity_mag_squ = 0.000576919916446

volFieldValue error_pressure_norm write:
    max(region0) of error_pres = 0.000905541396159

Courant Number mean: 0.0618980599651 max: 0.0763483898963
Time = 0.07125

time step continuity errors : sum local = 2.74783175108e-08, global = 2.15133912108e-20, cumulative = 5.79112188382e-19
DICPCG:  Solving for p, Initial residual = 0.332264935735, Final residual = 0.00312961164036, No Iterations 35
time step continuity errors : sum local = 3.994044308e-08, global = -4.6659482884e-20, cumulative = 5.32452705498e-19
DICPCG:  Solving for p, Initial residual = 0.00468826184949, Final residual = 4.16887373071e-05, No Iterations 82
time step continuity errors : sum local = 1.38349718322e-08, global = 2.24619967136e-21, cumulative = 5.34698905169e-19
DICPCG:  Solving for p, Initial residual = 0.33226526027, Final residual = 0.00314069211417, No Iterations 35
time step continuity errors : sum local = 4.53691123525e-08, global = 2.96417093553e-20, cumulative = 5.64340614524e-19
DICPCG:  Solving for p, Initial residual = 0.0023565629523, Final residual = 2.07961030949e-05, No Iterations 82
ExecutionTime = 5.13 s  ClockTime = 31 s

volFieldValue error_velocity_norm write:
    max(region0) of error_velocity_mag = 6.40291536764e-06

volFieldValue L2_error_velocity_norm write:
    sqrt(sum(region0)) of error_velocity_mag_squ = 0.000576919916446

volFieldValue error_pressure_norm write:
    max(region0) of error_pres = 0.000905541396159

Courant Number mean: 0.0618980588568 max: 0.0763483912215
Time = 0.075

time step continuity errors : sum local = 2.74786502701e-08, global = -1.77889680788e-20, cumulative = 5.46551646446e-19
DICPCG:  Solving for p, Initial residual = 0.332264940064, Final residual = 0.00312958712863, No Iterations 35
time step continuity errors : sum local = 3.99399203396e-08, global = -8.24498294341e-21, cumulative = 5.38306663502e-19
DICPCG:  Solving for p, Initial residual = 0.00468821754341, Final residual = 4.16855042861e-05, No Iterations 82
time step continuity errors : sum local = 1.38352336386e-08, global = 2.38627788853e-20, cumulative = 5.62169442388e-19
DICPCG:  Solving for p, Initial residual = 0.33226525496, Final residual = 0.00314068912173, No Iterations 35
time step continuity errors : sum local = 4.53692327282e-08, global = -7.8994137632e-21, cumulative = 5.54270028624e-19
DICPCG:  Solving for p, Initial residual = 0.0023565607145, Final residual = 1.85177783549e-05, No Iterations 82
ExecutionTime = 5.38 s  ClockTime = 31 s

volFieldValue error_velocity_norm write:
    max(region0) of error_velocity_mag = 6.40291536764e-06

volFieldValue L2_error_velocity_norm write:
    sqrt(sum(region0)) of error_velocity_mag_squ = 0.000576919916446

volFieldValue error_pressure_norm write:
    max(region0) of error_pres = 0.000905541396159

Courant Number mean: 0.0618980577481 max: 0.0763483927427
Time = 0.07875

time step continuity errors : sum local = 2.74774198259e-08, global = -1.0019494764e-20, cumulative = 5.4425053386e-19
DICPCG:  Solving for p, Initial residual = 0.332264870472, Final residual = 0.003130666603, No Iterations 35
time step continuity errors : sum local = 3.99441551949e-08, global = 1.55087746988e-20, cumulative = 5.59759308559e-19
DICPCG:  Solving for p, Initial residual = 0.00469009856077, Final residual = 4.15425821817e-05, No Iterations 82
time step continuity errors : sum local = 1.38353271862e-08, global = -1.13050201602e-20, cumulative = 5.48454288399e-19
DICPCG:  Solving for p, Initial residual = 0.332265264014, Final residual = 0.00314077440271, No Iterations 35
time step continuity errors : sum local = 4.53710188315e-08, global = 1.78054620676e-20, cumulative = 5.66259750466e-19
DICPCG:  Solving for p, Initial residual = 0.00235662363525, Final residual = 2.07968219496e-05, No Iterations 82
ExecutionTime = 5.62 s  ClockTime = 31 s

volFieldValue error_velocity_norm write:
    max(region0) of error_velocity_mag = 6.40291536764e-06

volFieldValue L2_error_velocity_norm write:
    sqrt(sum(region0)) of error_velocity_mag_squ = 0.000576919916446

volFieldValue error_pressure_norm write:
    max(region0) of error_pres = 0.000905541396159

Courant Number mean: 0.0618980566413 max: 0.0763483938039
Time = 0.0825

time step continuity errors : sum local = 2.74773869592e-08, global = -9.6654774432e-21, cumulative = 5.56594273023e-19
DICPCG:  Solving for p, Initial residual = 0.332265020826, Final residual = 0.0031297508924, No Iterations 35
time step continuity errors : sum local = 3.99390575701e-08, global = -1.32048460666e-20, cumulative = 5.43389426957e-19
DICPCG:  Solving for p, Initial residual = 0.00468838795485, Final residual = 3.65943071092e-05, No Iterations 82
time step continuity errors : sum local = 1.38350552537e-08, global = 2.48829924371e-20, cumulative = 5.68272419394e-19
DICPCG:  Solving for p, Initial residual = 0.332265404951, Final residual = 0.0031429487462, No Iterations 35
time step continuity errors : sum local = 4.53727194876e-08, global = 3.75294566386e-20, cumulative = 6.05801876032e-19
DICPCG:  Solving for p, Initial residual = 0.00235828287621, Final residual = 2.07899062099e-05, No Iterations 82
ExecutionTime = 5.86 s  ClockTime = 31 s

volFieldValue error_velocity_norm write:
    max(region0) of error_velocity_mag = 6.40291536764e-06

volFieldValue L2_error_velocity_norm write:
    sqrt(sum(region0)) of error_velocity_mag_squ = 0.000576919916446

volFieldValue error_pressure_norm write:
    max(region0) of error_pres = 0.000905541396159

Courant Number mean: 0.0618980555343 max: 0.0763483950301
Time = 0.08625

time step continuity errors : sum local = 2.74781047152e-08, global = -1.61138224834e-20, cumulative = 5.89688053549e-19
DICPCG:  Solving for p, Initial residual = 0.332264950561, Final residual = 0.00312970093258, No Iterations 35
time step continuity errors : sum local = 3.99418717528e-08, global = 2.92621464664e-20, cumulative = 6.18950200015e-19
DICPCG:  Solving for p, Initial residual = 0.00468833960501, Final residual = 4.02804009086e-05, No Iterations 82
time step continuity errors : sum local = 1.38349574418e-08, global = -1.91792906478e-20, cumulative = 5.99770909368e-19
DICPCG:  Solving for p, Initial residual = 0.332265245275, Final residual = 0.00314090249087, No Iterations 35
time step continuity errors : sum local = 4.53696605052e-08, global = -1.66050215161e-20, cumulative = 5.83165887851e-19
DICPCG:  Solving for p, Initial residual = 0.00235672516394, Final residual = 1.86026724062e-05, No Iterations 82
ExecutionTime = 6.1 s  ClockTime = 31 s

volFieldValue error_velocity_norm write:
    max(region0) of error_velocity_mag = 6.40291536764e-06

volFieldValue L2_error_velocity_norm write:
    sqrt(sum(region0)) of error_velocity_mag_squ = 0.000576919916446

volFieldValue error_pressure_norm write:
    max(region0) of error_pres = 0.000905541396159

Courant Number mean: 0.0618980544267 max: 0.0763483965191
Time = 0.09

time step continuity errors : sum local = 2.74774690133e-08, global = 2.32915236631e-20, cumulative = 6.06457411514e-19
DICPCG:  Solving for p, Initial residual = 0.33226487064, Final residual = 0.00313064728479, No Iterations 35
time step continuity errors : sum local = 3.99436550527e-08, global = 2.44593785294e-22, cumulative = 6.067020053e-19
DICPCG:  Solving for p, Initial residual = 0.00469007374238, Final residual = 4.16199252235e-05, No Iterations 82
time step continuity errors : sum local = 1.38357339052e-08, global = 3.09236141198e-20, cumulative = 6.3762561942e-19
DICPCG:  Solving for p, Initial residual = 0.332265263213, Final residual = 0.00314076189695, No Iterations 35
time step continuity errors : sum local = 4.53711607193e-08, global = -3.68202151197e-20, cumulative = 6.008054043e-19
DICPCG:  Solving for p, Initial residual = 0.00235661402026, Final residual = 2.06712490767e-05, No Iterations 82
ExecutionTime = 6.35 s  ClockTime = 32 s

volFieldValue error_velocity_norm write:
    max(region0) of error_velocity_mag = 6.40291536764e-06

volFieldValue L2_error_velocity_norm write:
    sqrt(sum(region0)) of error_velocity_mag_squ = 0.000576919916446

volFieldValue error_pressure_norm write:
    max(region0) of error_pres = 0.000905541396159

Courant Number mean: 0.0618980533212 max: 0.0763483975506
Time = 0.09375

time step continuity errors : sum local = 2.74773278201e-08, global = 2.57491279959e-20, cumulative = 6.26554532296e-19
DICPCG:  Solving for p, Initial residual = 0.332265006231, Final residual = 0.00312970827257, No Iterations 35
time step continuity errors : sum local = 3.99383989648e-08, global = -5.91691676661e-21, cumulative = 6.20637615529e-19
DICPCG:  Solving for p, Initial residual = 0.00468832675371, Final residual = 3.64098852613e-05, No Iterations 82
time step continuity errors : sum local = 1.38347846717e-08, global = 7.41686401738e-21, cumulative = 6.28054479547e-19
DICPCG:  Solving for p, Initial residual = 0.332265380992, Final residual = 0.00314269958897, No Iterations 35
time step continuity errors : sum local = 4.53725461989e-08, global = 4.88946195141e-21, cumulative = 6.32943941498e-19
DICPCG:  Solving for p, Initial residual = 0.00235810881634, Final residual = 1.82869560325e-05, No Iterations 82
ExecutionTime = 6.6 s  ClockTime = 32 s

volFieldValue error_velocity_norm write:
    max(region0) of error_velocity_mag = 6.40291536764e-06

volFieldValue L2_error_velocity_norm write:
    sqrt(sum(region0)) of error_velocity_mag_squ = 0.000576919916446

volFieldValue error_pressure_norm write:
    max(region0) of error_pres = 0.000905541396159

Courant Number mean: 0.061898052215 max: 0.0763483989184
Time = 0.0975

time step continuity errors : sum local = 2.74773448235e-08, global = 1.98434754168e-20, cumulative = 6.52787416915e-19
DICPCG:  Solving for p, Initial residual = 0.332264829637, Final residual = 0.00313027535322, No Iterations 35
time step continuity errors : sum local = 3.99410057152e-08, global = 2.59068266206e-20, cumulative = 6.78694243535e-19
DICPCG:  Solving for p, Initial residual = 0.00468951959779, Final residual = 4.16497219694e-05, No Iterations 82
time step continuity errors : sum local = 1.3835977676e-08, global = 5.74332759168e-21, cumulative = 6.84437571127e-19
DICPCG:  Solving for p, Initial residual = 0.332265266431, Final residual = 0.0031407410787, No Iterations 35
time step continuity errors : sum local = 4.53715658198e-08, global = 1.72788613029e-20, cumulative = 7.0171643243e-19
DICPCG:  Solving for p, Initial residual = 0.0023565983263, Final residual = 1.96341650528e-05, No Iterations 82
ExecutionTime = 6.83 s  ClockTime = 32 s

volFieldValue error_velocity_norm write:
    max(region0) of error_velocity_mag = 6.40291536764e-06

volFieldValue L2_error_velocity_norm write:
    sqrt(sum(region0)) of error_velocity_mag_squ = 0.000576919916446

volFieldValue error_pressure_norm write:
    max(region0) of error_pres = 0.000905541396159

Courant Number mean: 0.0618980511106 max: 0.0763484000223
Time = 0.10125

time step continuity errors : sum local = 2.74769548449e-08, global = -3.28560257113e-20, cumulative = 6.68860406719e-19
DICPCG:  Solving for p, Initial residual = 0.332264885981, Final residual = 0.00312969915109, No Iterations 35
time step continuity errors : sum local = 3.99410289707e-08, global = 1.32092712831e-20, cumulative = 6.82069678002e-19
DICPCG:  Solving for p, Initial residual = 0.00468840074444, Final residual = 4.16855325603e-05, No Iterations 82
time step continuity errors : sum local = 1.38354617423e-08, global = -7.31488289143e-21, cumulative = 6.7475479511e-19
DICPCG:  Solving for p, Initial residual = 0.332265274407, Final residual = 0.00314070623781, No Iterations 35
time step continuity errors : sum local = 4.53690683074e-08, global = -2.0913170935e-20, cumulative = 6.53841624175e-19
DICPCG:  Solving for p, Initial residual = 0.00235657398469, Final residual = 2.07829480344e-05, No Iterations 82
ExecutionTime = 7.07 s  ClockTime = 32 s

volFieldValue error_velocity_norm write:
    max(region0) of error_velocity_mag = 6.40291536764e-06

volFieldValue L2_error_velocity_norm write:
    sqrt(sum(region0)) of error_velocity_mag_squ = 0.000576919916446

volFieldValue error_pressure_norm write:
    max(region0) of error_pres = 0.000905541396159

Courant Number mean: 0.0618980500063 max: 0.0763484013855
Time = 0.105

time step continuity errors : sum local = 2.74778368458e-08, global = -2.94083797574e-20, cumulative = 6.24433244418e-19
DICPCG:  Solving for p, Initial residual = 0.332264963519, Final residual = 0.00312956475414, No Iterations 35
time step continuity errors : sum local = 3.99383986722e-08, global = -2.4083235126e-21, cumulative = 6.22024920905e-19
DICPCG:  Solving for p, Initial residual = 0.00468812464146, Final residual = 4.13568020183e-05, No Iterations 82
time step continuity errors : sum local = 1.38352109012e-08, global = -1.07512646578e-21, cumulative = 6.20949794439e-19
DICPCG:  Solving for p, Initial residual = 0.332265256329, Final residual = 0.00314074539514, No Iterations 35
time step continuity errors : sum local = 4.53693014933e-08, global = 2.44477120495e-20, cumulative = 6.45397506489e-19
DICPCG:  Solving for p, Initial residual = 0.00235660522621, Final residual = 2.0796172385e-05, No Iterations 82
ExecutionTime = 7.32 s  ClockTime = 33 s

volFieldValue error_velocity_norm write:
    max(region0) of error_velocity_mag = 6.40291536764e-06

volFieldValue L2_error_velocity_norm write:
    sqrt(sum(region0)) of error_velocity_mag_squ = 0.000576919916446

volFieldValue error_pressure_norm write:
    max(region0) of error_pres = 0.000905541396159

Courant Number mean: 0.0618980489024 max: 0.0763484028118
Time = 0.10875

time step continuity errors : sum local = 2.74785228761e-08, global = -8.25021274474e-21, cumulative = 6.37147293744e-19
DICPCG:  Solving for p, Initial residual = 0.332264937516, Final residual = 0.00312964842262, No Iterations 35
time step continuity errors : sum local = 3.99397795897e-08, global = -1.1269417282e-20, cumulative = 6.25877876462e-19
DICPCG:  Solving for p, Initial residual = 0.00468827801117, Final residual = 4.16850153021e-05, No Iterations 82
time step continuity errors : sum local = 1.38354417047e-08, global = -3.2312126373e-21, cumulative = 6.22646663825e-19
DICPCG:  Solving for p, Initial residual = 0.332265249379, Final residual = 0.00314070069917, No Iterations 35
time step continuity errors : sum local = 4.53692698725e-08, global = -3.15558166421e-20, cumulative = 5.91090847183e-19
DICPCG:  Solving for p, Initial residual = 0.00235656985342, Final residual = 1.8893416193e-05, No Iterations 82
ExecutionTime = 7.57 s  ClockTime = 33 s

volFieldValue error_velocity_norm write:
    max(region0) of error_velocity_mag = 6.40291536764e-06

volFieldValue L2_error_velocity_norm write:
    sqrt(sum(region0)) of error_velocity_mag_squ = 0.000576919916446

volFieldValue error_pressure_norm write:
    max(region0) of error_pres = 0.000905541396159

Courant Number mean: 0.0618980477981 max: 0.076348404331
Time = 0.1125

time step continuity errors : sum local = 2.74778381746e-08, global = 2.97269953462e-20, cumulative = 6.20817842529e-19
DICPCG:  Solving for p, Initial residual = 0.332264897834, Final residual = 0.00313093182556, No Iterations 35
time step continuity errors : sum local = 3.99460554669e-08, global = -8.33549873566e-22, cumulative = 6.19984292655e-19
DICPCG:  Solving for p, Initial residual = 0.00469050530934, Final residual = 4.07761165358e-05, No Iterations 82
time step continuity errors : sum local = 1.38359062405e-08, global = 1.79607469379e-20, cumulative = 6.37945039593e-19
DICPCG:  Solving for p, Initial residual = 0.332265245392, Final residual = 0.00314089006303, No Iterations 35
time step continuity errors : sum local = 4.53702911799e-08, global = -4.51959430964e-20, cumulative = 5.92749096497e-19
DICPCG:  Solving for p, Initial residual = 0.00235671479912, Final residual = 1.97588730658e-05, No Iterations 82
ExecutionTime = 7.81 s  ClockTime = 33 s

volFieldValue error_velocity_norm write:
    max(region0) of error_velocity_mag = 6.40291536764e-06

volFieldValue L2_error_velocity_norm write:
    sqrt(sum(region0)) of error_velocity_mag_squ = 0.000576919916446

volFieldValue error_pressure_norm write:
    max(region0) of error_pres = 0.000905541396159

Courant Number mean: 0.0618980466959 max: 0.0763484056067
Time = 0.11625

time step continuity errors : sum local = 2.74773066569e-08, global = -3.48155920406e-20, cumulative = 5.57933504456e-19
DICPCG:  Solving for p, Initial residual = 0.332264913211, Final residual = 0.00312945978455, No Iterations 35
time step continuity errors : sum local = 3.99373965476e-08, global = -3.27023500107e-21, cumulative = 5.54663269455e-19
DICPCG:  Solving for p, Initial residual = 0.00468802988419, Final residual = 4.11024569173e-05, No Iterations 82
time step continuity errors : sum local = 1.38354800495e-08, global = 2.70018665607e-21, cumulative = 5.57363456111e-19
DICPCG:  Solving for p, Initial residual = 0.332265260689, Final residual = 0.00314078587761, No Iterations 35
time step continuity errors : sum local = 4.53700426707e-08, global = -1.76336832085e-20, cumulative = 5.39729772903e-19
DICPCG:  Solving for p, Initial residual = 0.00235663629177, Final residual = 2.08073897454e-05, No Iterations 82
ExecutionTime = 8.05 s  ClockTime = 33 s

volFieldValue error_velocity_norm write:
    max(region0) of error_velocity_mag = 6.40291536764e-06

volFieldValue L2_error_velocity_norm write:
    sqrt(sum(region0)) of error_velocity_mag_squ = 0.000576919916446

volFieldValue error_pressure_norm write:
    max(region0) of error_pres = 0.000905541396159

Courant Number mean: 0.0618980455938 max: 0.0763484068983
Time = 0.12

time step continuity errors : sum local = 2.74781255205e-08, global = -6.10277586004e-20, cumulative = 4.78702014302e-19
DICPCG:  Solving for p, Initial residual = 0.332264961816, Final residual = 0.0031297553047, No Iterations 35
time step continuity errors : sum local = 3.99396021139e-08, global = -1.85945586298e-20, cumulative = 4.60107455672e-19
DICPCG:  Solving for p, Initial residual = 0.00468840505201, Final residual = 4.06253077404e-05, No Iterations 82
time step continuity errors : sum local = 1.38353361968e-08, global = 1.46673801232e-20, cumulative = 4.74774835796e-19
DICPCG:  Solving for p, Initial residual = 0.332265244106, Final residual = 0.00314085532602, No Iterations 35
time step continuity errors : sum local = 4.53698720318e-08, global = -4.95382873701e-21, cumulative = 4.69821007059e-19
DICPCG:  Solving for p, Initial residual = 0.00235668741966, Final residual = 2.05695410603e-05, No Iterations 82
ExecutionTime = 8.31 s  ClockTime = 34 s

volFieldValue error_velocity_norm write:
    max(region0) of error_velocity_mag = 6.40291536764e-06

volFieldValue L2_error_velocity_norm write:
    sqrt(sum(region0)) of error_velocity_mag_squ = 0.000576919916446

volFieldValue error_pressure_norm write:
    max(region0) of error_pres = 0.000905541396159

Courant Number mean: 0.061898044492 max: 0.0763484082648
Time = 0.12375

time step continuity errors : sum local = 2.74786245227e-08, global = 1.44833313456e-20, cumulative = 4.84304338404e-19
DICPCG:  Solving for p, Initial residual = 0.332264909216, Final residual = 0.00312956479758, No Iterations 35
time step continuity errors : sum local = 3.99389022261e-08, global = -3.5643107528e-21, cumulative = 4.80740027652e-19
DICPCG:  Solving for p, Initial residual = 0.00468818164789, Final residual = 4.14034224732e-05, No Iterations 82
time step continuity errors : sum local = 1.38356210914e-08, global = 4.39464228708e-21, cumulative = 4.85134669939e-19
DICPCG:  Solving for p, Initial residual = 0.332265243567, Final residual = 0.00314074302327, No Iterations 35
time step continuity errors : sum local = 4.53701782045e-08, global = 9.76444137606e-21, cumulative = 4.94899111315e-19
DICPCG:  Solving for p, Initial residual = 0.00235660299682, Final residual = 2.04873311298e-05, No Iterations 82
ExecutionTime = 8.56 s  ClockTime = 34 s

volFieldValue error_velocity_norm write:
    max(region0) of error_velocity_mag = 6.40291536764e-06

volFieldValue L2_error_velocity_norm write:
    sqrt(sum(region0)) of error_velocity_mag_squ = 0.000576919916446

volFieldValue error_pressure_norm write:
    max(region0) of error_pres = 0.000905541396159

Courant Number mean: 0.0618980433914 max: 0.0763484096474
Time = 0.1275

time step continuity errors : sum local = 2.74788888381e-08, global = -4.61027101886e-21, cumulative = 4.90288840296e-19
DICPCG:  Solving for p, Initial residual = 0.332264889489, Final residual = 0.00312965938251, No Iterations 35
time step continuity errors : sum local = 3.99409690124e-08, global = 1.39490870251e-20, cumulative = 5.04237927321e-19
DICPCG:  Solving for p, Initial residual = 0.00468834204212, Final residual = 3.77086176532e-05, No Iterations 82
time step continuity errors : sum local = 1.3837230145e-08, global = -2.21379501773e-20, cumulative = 4.82099977144e-19
DICPCG:  Solving for p, Initial residual = 0.332265423606, Final residual = 0.00314347324355, No Iterations 35
time step continuity errors : sum local = 4.53726930971e-08, global = 1.28733571207e-20, cumulative = 4.94973334264e-19
DICPCG:  Solving for p, Initial residual = 0.00235865456394, Final residual = 2.07622712841e-05, No Iterations 82
ExecutionTime = 8.8 s  ClockTime = 34 s

volFieldValue error_velocity_norm write:
    max(region0) of error_velocity_mag = 6.40291536764e-06

volFieldValue L2_error_velocity_norm write:
    sqrt(sum(region0)) of error_velocity_mag_squ = 0.000576919916446

volFieldValue error_pressure_norm write:
    max(region0) of error_pres = 0.000905541396159

Courant Number mean: 0.061898042292 max: 0.0763484110059
Time = 0.13125

time step continuity errors : sum local = 2.74792275174e-08, global = 2.56461411389e-20, cumulative = 5.20619475403e-19
DICPCG:  Solving for p, Initial residual = 0.332264919677, Final residual = 0.00312955341487, No Iterations 35
time step continuity errors : sum local = 3.99415540914e-08, global = -5.1579921351e-21, cumulative = 5.15461483268e-19
DICPCG:  Solving for p, Initial residual = 0.00468814854811, Final residual = 4.16968858269e-05, No Iterations 82
time step continuity errors : sum local = 1.38360089175e-08, global = 3.14005317719e-20, cumulative = 5.4686201504e-19
DICPCG:  Solving for p, Initial residual = 0.332265241317, Final residual = 0.00314069555669, No Iterations 35
time step continuity errors : sum local = 4.53694451279e-08, global = 1.34385779568e-20, cumulative = 5.60300592997e-19
DICPCG:  Solving for p, Initial residual = 0.00235656613085, Final residual = 2.06889968396e-05, No Iterations 82
ExecutionTime = 9.04 s  ClockTime = 34 s

volFieldValue error_velocity_norm write:
    max(region0) of error_velocity_mag = 6.40291536764e-06

volFieldValue L2_error_velocity_norm write:
    sqrt(sum(region0)) of error_velocity_mag_squ = 0.000576919916446

volFieldValue error_pressure_norm write:
    max(region0) of error_pres = 0.000905541396159

Courant Number mean: 0.0618980411931 max: 0.0763484124044
Time = 0.135

time step continuity errors : sum local = 2.74793888781e-08, global = -4.73136103427e-21, cumulative = 5.55569231963e-19
DICPCG:  Solving for p, Initial residual = 0.33226490406, Final residual = 0.00312963167938, No Iterations 35
time step continuity errors : sum local = 3.99404485688e-08, global = -1.40530796131e-20, cumulative = 5.41516152349e-19
DICPCG:  Solving for p, Initial residual = 0.00468829223226, Final residual = 4.12362449355e-05, No Iterations 82
time step continuity errors : sum local = 1.38360542819e-08, global = 5.40499967485e-21, cumulative = 5.46921152024e-19
DICPCG:  Solving for p, Initial residual = 0.332265231601, Final residual = 0.00314078145578, No Iterations 35
time step continuity errors : sum local = 4.53691564548e-08, global = -1.1343036793e-20, cumulative = 5.35578115231e-19
DICPCG:  Solving for p, Initial residual = 0.00235663320844, Final residual = 2.07945529144e-05, No Iterations 82
ExecutionTime = 9.29 s  ClockTime = 35 s

volFieldValue error_velocity_norm write:
    max(region0) of error_velocity_mag = 6.40291536764e-06

volFieldValue L2_error_velocity_norm write:
    sqrt(sum(region0)) of error_velocity_mag_squ = 0.000576919916446

volFieldValue error_pressure_norm write:
    max(region0) of error_pres = 0.000905541396159

Courant Number mean: 0.0618980400949 max: 0.0763484137617
Time = 0.13875

time step continuity errors : sum local = 2.7479580009e-08, global = 2.41488087888e-20, cumulative = 5.5972692402e-19
DICPCG:  Solving for p, Initial residual = 0.332264918856, Final residual = 0.00312958111311, No Iterations 35
time step continuity errors : sum local = 3.9940042889e-08, global = 2.26442351753e-20, cumulative = 5.82371159195e-19
DICPCG:  Solving for p, Initial residual = 0.00468820444578, Final residual = 4.16880475159e-05, No Iterations 82
time step continuity errors : sum local = 1.38362687295e-08, global = -1.67898748785e-20, cumulative = 5.65581284317e-19
DICPCG:  Solving for p, Initial residual = 0.33226523628, Final residual = 0.00314070017507, No Iterations 35
time step continuity errors : sum local = 4.53690241646e-08, global = 3.48586373284e-21, cumulative = 5.6906714805e-19
DICPCG:  Solving for p, Initial residual = 0.00235656925314, Final residual = 2.0763330705e-05, No Iterations 82
ExecutionTime = 9.53 s  ClockTime = 35 s

volFieldValue error_velocity_norm write:
    max(region0) of error_velocity_mag = 6.40291536764e-06

volFieldValue L2_error_velocity_norm write:
    sqrt(sum(region0)) of error_velocity_mag_squ = 0.000576919916446

volFieldValue error_pressure_norm write:
    max(region0) of error_pres = 0.000905541396159

Courant Number mean: 0.0618980389972 max: 0.076348415098
Time = 0.1425

time step continuity errors : sum local = 2.74796892917e-08, global = -1.46434437248e-20, cumulative = 5.54423704325e-19
DICPCG:  Solving for p, Initial residual = 0.332264913041, Final residual = 0.00312954913925, No Iterations 35
time step continuity errors : sum local = 3.99393454718e-08, global = -2.85627611116e-23, cumulative = 5.54395141564e-19
DICPCG:  Solving for p, Initial residual = 0.00468816381705, Final residual = 4.14524785485e-05, No Iterations 82
time step continuity errors : sum local = 1.38363310358e-08, global = 1.90956138265e-20, cumulative = 5.7349075539e-19
DICPCG:  Solving for p, Initial residual = 0.33226523182, Final residual = 0.00314073665175, No Iterations 35
time step continuity errors : sum local = 4.53694672842e-08, global = 1.82294782677e-20, cumulative = 5.91720233658e-19
DICPCG:  Solving for p, Initial residual = 0.00235659785294, Final residual = 1.95369562581e-05, No Iterations 82
ExecutionTime = 9.76 s  ClockTime = 35 s

volFieldValue error_velocity_norm write:
    max(region0) of error_velocity_mag = 6.40291536764e-06

volFieldValue L2_error_velocity_norm write:
    sqrt(sum(region0)) of error_velocity_mag_squ = 0.000576919916446

volFieldValue error_pressure_norm write:
    max(region0) of error_pres = 0.000905541396159

Courant Number mean: 0.0618980379001 max: 0.0763484222628
Time = 0.14625

time step continuity errors : sum local = 2.74791800036e-08, global = 4.34878095234e-22, cumulative = 5.92155111753e-19
DICPCG:  Solving for p, Initial residual = 0.332264784945, Final residual = 0.00312959304334, No Iterations 35
time step continuity errors : sum local = 3.99421408738e-08, global = -2.48405505879e-20, cumulative = 5.67314561166e-19
DICPCG:  Solving for p, Initial residual = 0.00468828694872, Final residual = 4.16832519077e-05, No Iterations 82
time step continuity errors : sum local = 1.3836268355e-08, global = 2.35224395064e-20, cumulative = 5.90837000672e-19
DICPCG:  Solving for p, Initial residual = 0.332265240815, Final residual = 0.00314070365495, No Iterations 35
time step continuity errors : sum local = 4.53686337096e-08, global = 6.30673811192e-21, cumulative = 5.97143738784e-19
DICPCG:  Solving for p, Initial residual = 0.002356571326, Final residual = 2.08018364428e-05, No Iterations 82
ExecutionTime = 10.01 s  ClockTime = 35 s

volFieldValue error_velocity_norm write:
    max(region0) of error_velocity_mag = 6.40291536764e-06

volFieldValue L2_error_velocity_norm write:
    sqrt(sum(region0)) of error_velocity_mag_squ = 0.000576919916446

volFieldValue error_pressure_norm write:
    max(region0) of error_pres = 0.000905541396159

Courant Number mean: 0.0618980368039 max: 0.0763484324583
Time = 0.15

time step continuity errors : sum local = 2.74794415123e-08, global = 9.95995548733e-21, cumulative = 6.07103694271e-19
DICPCG:  Solving for p, Initial residual = 0.332264936041, Final residual = 0.00312952987793, No Iterations 35
time step continuity errors : sum local = 3.99393569406e-08, global = 6.25725614549e-21, cumulative = 6.13360950417e-19
DICPCG:  Solving for p, Initial residual = 0.00468811455593, Final residual = 4.16969004602e-05, No Iterations 82
time step continuity errors : sum local = 1.38363432031e-08, global = -1.25133054137e-20, cumulative = 6.00847645003e-19
DICPCG:  Solving for p, Initial residual = 0.332265239339, Final residual = 0.00314069478448, No Iterations 35
time step continuity errors : sum local = 4.53686593299e-08, global = 2.68811788377e-21, cumulative = 6.03535762887e-19
DICPCG:  Solving for p, Initial residual = 0.00235656505234, Final residual = 2.0796878452e-05, No Iterations 82
ExecutionTime = 10.26 s  ClockTime = 36 s

volFieldValue error_velocity_norm write:
    max(region0) of error_velocity_mag = 6.40291536764e-06

volFieldValue L2_error_velocity_norm write:
    sqrt(sum(region0)) of error_velocity_mag_squ = 0.000576919916446

volFieldValue error_pressure_norm write:
    max(region0) of error_pres = 0.000905541396159

Courant Number mean: 0.0618980357082 max: 0.0763484429933
Time = 0.15375

time step continuity errors : sum local = 2.74796413211e-08, global = -1.73729977268e-20, cumulative = 5.8616276516e-19
DICPCG:  Solving for p, Initial residual = 0.332264921716, Final residual = 0.00312959961445, No Iterations 35
time step continuity errors : sum local = 3.99399065384e-08, global = 3.08900227036e-20, cumulative = 6.17052787863e-19
DICPCG:  Solving for p, Initial residual = 0.00468823038144, Final residual = 4.14494187435e-05, No Iterations 82
time step continuity errors : sum local = 1.38363846947e-08, global = -2.28300942688e-21, cumulative = 6.14769778437e-19
DICPCG:  Solving for p, Initial residual = 0.3322652332, Final residual = 0.00314073943397, No Iterations 35
time step continuity errors : sum local = 4.53689219581e-08, global = 2.59434352299e-20, cumulative = 6.40713213667e-19
DICPCG:  Solving for p, Initial residual = 0.00235659998479, Final residual = 2.05566589253e-05, No Iterations 82
ExecutionTime = 10.5 s  ClockTime = 36 s

volFieldValue error_velocity_norm write:
    max(region0) of error_velocity_mag = 6.40291536764e-06

volFieldValue L2_error_velocity_norm write:
    sqrt(sum(region0)) of error_velocity_mag_squ = 0.000576919916446

volFieldValue error_pressure_norm write:
    max(region0) of error_pres = 0.000905541396159

Courant Number mean: 0.0618980346131 max: 0.0763484538556
Time = 0.1575

time step continuity errors : sum local = 2.74796523614e-08, global = -4.61550082019e-20, cumulative = 5.94558205465e-19
DICPCG:  Solving for p, Initial residual = 0.332264892229, Final residual = 0.00312950971006, No Iterations 35
time step continuity errors : sum local = 3.99390040962e-08, global = 2.13918989029e-20, cumulative = 6.15950104368e-19
DICPCG:  Solving for p, Initial residual = 0.00468812454188, Final residual = 4.16627052819e-05, No Iterations 82
time step continuity errors : sum local = 1.38364458814e-08, global = -5.1708453776e-20, cumulative = 5.64241650592e-19
DICPCG:  Solving for p, Initial residual = 0.332265234901, Final residual = 0.00314071256599, No Iterations 35
time step continuity errors : sum local = 4.53696320946e-08, global = 4.49127292397e-20, cumulative = 6.09154379831e-19
DICPCG:  Solving for p, Initial residual = 0.0023565788151, Final residual = 2.00370942545e-05, No Iterations 82
ExecutionTime = 10.74 s  ClockTime = 36 s

volFieldValue error_velocity_norm write:
    max(region0) of error_velocity_mag = 6.40291536764e-06

volFieldValue L2_error_velocity_norm write:
    sqrt(sum(region0)) of error_velocity_mag_squ = 0.000576919916446

volFieldValue error_pressure_norm write:
    max(region0) of error_pres = 0.000905541396159

Courant Number mean: 0.0618980335187 max: 0.0763484650106
Time = 0.16125

time step continuity errors : sum local = 2.74794348723e-08, global = 3.92878767628e-21, cumulative = 6.13083167508e-19
DICPCG:  Solving for p, Initial residual = 0.332264844503, Final residual = 0.00312947207118, No Iterations 35
time step continuity errors : sum local = 3.9938720839e-08, global = -2.93987247396e-20, cumulative = 5.83684442768e-19
DICPCG:  Solving for p, Initial residual = 0.00468811640788, Final residual = 3.98731660589e-05, No Iterations 82
time step continuity errors : sum local = 1.38362007803e-08, global = 1.53152720495e-21, cumulative = 5.85215969973e-19
DICPCG:  Solving for p, Initial residual = 0.332265219528, Final residual = 0.0031409714986, No Iterations 35
time step continuity errors : sum local = 4.53705256681e-08, global = 7.30925079769e-21, cumulative = 5.92525220771e-19
DICPCG:  Solving for p, Initial residual = 0.00235677912011, Final residual = 2.07946274133e-05, No Iterations 82
ExecutionTime = 10.99 s  ClockTime = 36 s

volFieldValue error_velocity_norm write:
    max(region0) of error_velocity_mag = 6.40291536764e-06

volFieldValue L2_error_velocity_norm write:
    sqrt(sum(region0)) of error_velocity_mag_squ = 0.000576919916446

volFieldValue error_pressure_norm write:
    max(region0) of error_pres = 0.000905541396159

Courant Number mean: 0.0618980324249 max: 0.0763484764212
Time = 0.165

time step continuity errors : sum local = 2.74796149428e-08, global = -8.14963964223e-21, cumulative = 5.84375581128e-19
DICPCG:  Solving for p, Initial residual = 0.332264925617, Final residual = 0.00312971160641, No Iterations 35
time step continuity errors : sum local = 3.99406774236e-08, global = 2.85148883148e-20, cumulative = 6.12890469443e-19
DICPCG:  Solving for p, Initial residual = 0.00468839078766, Final residual = 4.16947695951e-05, No Iterations 82
time step continuity errors : sum local = 1.38364698918e-08, global = -2.6092685714e-21, cumulative = 6.10281200872e-19
DICPCG:  Solving for p, Initial residual = 0.332265238205, Final residual = 0.00314069892338, No Iterations 35
time step continuity errors : sum local = 4.53697148272e-08, global = 1.68093860604e-20, cumulative = 6.27090586932e-19
DICPCG:  Solving for p, Initial residual = 0.00235656808196, Final residual = 1.85539352777e-05, No Iterations 82
ExecutionTime = 11.23 s  ClockTime = 37 s

volFieldValue error_velocity_norm write:
    max(region0) of error_velocity_mag = 6.40291536764e-06

volFieldValue L2_error_velocity_norm write:
    sqrt(sum(region0)) of error_velocity_mag_squ = 0.000576919916446

volFieldValue error_pressure_norm write:
    max(region0) of error_pres = 0.000905541396159

Courant Number mean: 0.0618980313315 max: 0.0763484880638
Time = 0.16875

time step continuity errors : sum local = 2.74788129582e-08, global = 7.33926181148e-20, cumulative = 7.00483205047e-19
DICPCG:  Solving for p, Initial residual = 0.332264735075, Final residual = 0.00312967916806, No Iterations 35
time step continuity errors : sum local = 3.99429758087e-08, global = 1.68950743437e-20, cumulative = 7.17378279391e-19
DICPCG:  Solving for p, Initial residual = 0.00468844644865, Final residual = 4.16585596354e-05, No Iterations 82
time step continuity errors : sum local = 1.38362468058e-08, global = -3.76207770156e-20, cumulative = 6.79757502375e-19
DICPCG:  Solving for p, Initial residual = 0.332265244739, Final residual = 0.00314072306363, No Iterations 35
time step continuity errors : sum local = 4.53687728221e-08, global = 1.92983692012e-20, cumulative = 6.99055871576e-19
DICPCG:  Solving for p, Initial residual = 0.00235658607497, Final residual = 1.78902676618e-05, No Iterations 82
ExecutionTime = 11.48 s  ClockTime = 37 s

volFieldValue error_velocity_norm write:
    max(region0) of error_velocity_mag = 6.40291536764e-06

volFieldValue L2_error_velocity_norm write:
    sqrt(sum(region0)) of error_velocity_mag_squ = 0.000576919916446

volFieldValue error_pressure_norm write:
    max(region0) of error_pres = 0.000905541396159

Courant Number mean: 0.0618980302387 max: 0.0763484998952
Time = 0.1725

time step continuity errors : sum local = 2.74781331425e-08, global = -7.95211406891e-21, cumulative = 6.91103757507e-19
DICPCG:  Solving for p, Initial residual = 0.332264759684, Final residual = 0.0031296999878, No Iterations 35
time step continuity errors : sum local = 3.99393050303e-08, global = -2.44955848463e-21, cumulative = 6.88654199023e-19
DICPCG:  Solving for p, Initial residual = 0.004688545346, Final residual = 4.16469398695e-05, No Iterations 82
time step continuity errors : sum local = 1.38362854283e-08, global = -2.70831296275e-20, cumulative = 6.61571069395e-19
DICPCG:  Solving for p, Initial residual = 0.332265254191, Final residual = 0.00314072942476, No Iterations 35
time step continuity errors : sum local = 4.53703897502e-08, global = -7.57355691108e-21, cumulative = 6.53997512484e-19
DICPCG:  Solving for p, Initial residual = 0.00235658881969, Final residual = 2.07500522684e-05, No Iterations 82
ExecutionTime = 11.71 s  ClockTime = 37 s

volFieldValue error_velocity_norm write:
    max(region0) of error_velocity_mag = 6.40291536764e-06

volFieldValue L2_error_velocity_norm write:
    sqrt(sum(region0)) of error_velocity_mag_squ = 0.000576919916446

volFieldValue error_pressure_norm write:
    max(region0) of error_pres = 0.000905541396159

Courant Number mean: 0.061898029147 max: 0.0763485118531
Time = 0.17625

time step continuity errors : sum local = 2.74781656035e-08, global = 1.86591265617e-20, cumulative = 6.72656639046e-19
DICPCG:  Solving for p, Initial residual = 0.332264982246, Final residual = 0.00312973771031, No Iterations 35
time step continuity errors : sum local = 3.99389704536e-08, global = 3.34272809336e-20, cumulative = 7.06083919979e-19
DICPCG:  Solving for p, Initial residual = 0.00468837790328, Final residual = 4.16906361097e-05, No Iterations 82
time step continuity errors : sum local = 1.38359352111e-08, global = -5.67011037306e-21, cumulative = 7.00413809606e-19
DICPCG:  Solving for p, Initial residual = 0.332265257733, Final residual = 0.00314070381723, No Iterations 35
time step continuity errors : sum local = 4.53695281634e-08, global = -2.66394010993e-20, cumulative = 6.73774408507e-19
DICPCG:  Solving for p, Initial residual = 0.00235657208893, Final residual = 2.07893604469e-05, No Iterations 82
ExecutionTime = 11.96 s  ClockTime = 37 s

volFieldValue error_velocity_norm write:
    max(region0) of error_velocity_mag = 6.40291536764e-06

volFieldValue L2_error_velocity_norm write:
    sqrt(sum(region0)) of error_velocity_mag_squ = 0.000576919916446

volFieldValue error_pressure_norm write:
    max(region0) of error_pres = 0.000905541396159

Courant Number mean: 0.0618980280556 max: 0.0763485239453
Time = 0.18

time step continuity errors : sum local = 2.74787379382e-08, global = 4.0382112118e-21, cumulative = 6.77812619719e-19
DICPCG:  Solving for p, Initial residual = 0.332264934614, Final residual = 0.00312969191021, No Iterations 35
time step continuity errors : sum local = 3.99399328975e-08, global = -4.14683016251e-21, cumulative = 6.73665789556e-19
DICPCG:  Solving for p, Initial residual = 0.00468834236556, Final residual = 4.1691316342e-05, No Iterations 82
time step continuity errors : sum local = 1.38359499328e-08, global = 2.06939215715e-21, cumulative = 6.75735181713e-19
DICPCG:  Solving for p, Initial residual = 0.332265248151, Final residual = 0.00314070123192, No Iterations 35
time step continuity errors : sum local = 4.53692621724e-08, global = 7.15758655912e-21, cumulative = 6.82892768273e-19
DICPCG:  Solving for p, Initial residual = 0.00235656985921, Final residual = 2.07965770045e-05, No Iterations 82
ExecutionTime = 12.2 s  ClockTime = 38 s

volFieldValue error_velocity_norm write:
    max(region0) of error_velocity_mag = 6.40291536764e-06

volFieldValue L2_error_velocity_norm write:
    sqrt(sum(region0)) of error_velocity_mag_squ = 0.000576919916446

volFieldValue error_pressure_norm write:
    max(region0) of error_pres = 0.000905541396159

Courant Number mean: 0.0618980269647 max: 0.0763485361728
Time = 0.18375

time step continuity errors : sum local = 2.7479160646e-08, global = -2.82654670206e-20, cumulative = 6.54627301252e-19
DICPCG:  Solving for p, Initial residual = 0.3322649263, Final residual = 0.00312961024172, No Iterations 35
time step continuity errors : sum local = 3.99396749041e-08, global = 4.67222405e-21, cumulative = 6.59299525302e-19
DICPCG:  Solving for p, Initial residual = 0.00468823585243, Final residual = 4.1692458769e-05, No Iterations 82
time step continuity errors : sum local = 1.3836082418e-08, global = -2.60755882866e-20, cumulative = 6.33223937015e-19
DICPCG:  Solving for p, Initial residual = 0.332265242079, Final residual = 0.00314069872421, No Iterations 35
time step continuity errors : sum local = 4.53691671438e-08, global = -3.00641163858e-20, cumulative = 6.0315982063e-19
DICPCG:  Solving for p, Initial residual = 0.00235656789089, Final residual = 2.05063260276e-05, No Iterations 82
ExecutionTime = 12.44 s  ClockTime = 38 s

volFieldValue error_velocity_norm write:
    max(region0) of error_velocity_mag = 6.40291536764e-06

volFieldValue L2_error_velocity_norm write:
    sqrt(sum(region0)) of error_velocity_mag_squ = 0.000576919916446

volFieldValue error_pressure_norm write:
    max(region0) of error_pres = 0.000905541396159

Courant Number mean: 0.0618980258745 max: 0.0763485484809
Time = 0.1875

time step continuity errors : sum local = 2.7479251436e-08, global = 1.59991691466e-20, cumulative = 6.19158989776e-19
DICPCG:  Solving for p, Initial residual = 0.332264883705, Final residual = 0.00312958593666, No Iterations 35
time step continuity errors : sum local = 3.99406614015e-08, global = 1.32692128522e-20, cumulative = 6.32428202628e-19
DICPCG:  Solving for p, Initial residual = 0.00468823994658, Final residual = 4.16061112044e-05, No Iterations 82
time step continuity errors : sum local = 1.38361439283e-08, global = -3.0708991119e-20, cumulative = 6.01719211509e-19
DICPCG:  Solving for p, Initial residual = 0.332265238954, Final residual = 0.00314072020676, No Iterations 35
time step continuity errors : sum local = 4.53687333619e-08, global = 2.90414890795e-20, cumulative = 6.30760700589e-19
DICPCG:  Solving for p, Initial residual = 0.00235658458129, Final residual = 2.07581341065e-05, No Iterations 82
ExecutionTime = 12.68 s  ClockTime = 38 s

volFieldValue error_velocity_norm write:
    max(region0) of error_velocity_mag = 6.40291536764e-06

volFieldValue L2_error_velocity_norm write:
    sqrt(sum(region0)) of error_velocity_mag_squ = 0.000576919916446

volFieldValue error_pressure_norm write:
    max(region0) of error_pres = 0.000905541396159

Courant Number mean: 0.0618980247851 max: 0.0763485608202
Time = 0.19125

time step continuity errors : sum local = 2.74794407764e-08, global = -1.51913659873e-20, cumulative = 6.15569334602e-19
DICPCG:  Solving for p, Initial residual = 0.332264913797, Final residual = 0.00312955876415, No Iterations 35
time step continuity errors : sum local = 3.99399790056e-08, global = -1.20223075273e-20, cumulative = 6.03547027074e-19
DICPCG:  Solving for p, Initial residual = 0.00468817683307, Final residual = 4.16839048679e-05, No Iterations 82
time step continuity errors : sum local = 1.38362557667e-08, global = 1.25716378132e-20, cumulative = 6.16118664887e-19
DICPCG:  Solving for p, Initial residual = 0.332265237983, Final residual = 0.00314070718363, No Iterations 35
time step continuity errors : sum local = 4.53686146556e-08, global = -1.06905185039e-20, cumulative = 6.05428146383e-19
DICPCG:  Solving for p, Initial residual = 0.00235657454875, Final residual = 2.07950000569e-05, No Iterations 82
ExecutionTime = 12.93 s  ClockTime = 38 s

volFieldValue error_velocity_norm write:
    max(region0) of error_velocity_mag = 6.40291536764e-06

volFieldValue L2_error_velocity_norm write:
    sqrt(sum(region0)) of error_velocity_mag_squ = 0.000576919916446

volFieldValue error_pressure_norm write:
    max(region0) of error_pres = 0.000905541396159

Courant Number mean: 0.0618980236962 max: 0.0763485731518
Time = 0.195

time step continuity errors : sum local = 2.74796133774e-08, global = -1.80106311967e-21, cumulative = 6.03627083264e-19
DICPCG:  Solving for p, Initial residual = 0.332264917264, Final residual = 0.00312957525365, No Iterations 35
time step continuity errors : sum local = 3.99398658372e-08, global = 7.07149598337e-21, cumulative = 6.10698579247e-19
DICPCG:  Solving for p, Initial residual = 0.00468819878223, Final residual = 4.1483495578e-05, No Iterations 82
time step continuity errors : sum local = 1.38363018504e-08, global = 1.34249000149e-20, cumulative = 6.24123479262e-19
DICPCG:  Solving for p, Initial residual = 0.332265232671, Final residual = 0.00314074952211, No Iterations 35
time step continuity errors : sum local = 4.53687695016e-08, global = 2.85848871941e-20, cumulative = 6.52708366456e-19
DICPCG:  Solving for p, Initial residual = 0.00235660789917, Final residual = 1.94534602144e-05, No Iterations 82
ExecutionTime = 13.17 s  ClockTime = 39 s

volFieldValue error_velocity_norm write:
    max(region0) of error_velocity_mag = 6.40291536764e-06

volFieldValue L2_error_velocity_norm write:
    sqrt(sum(region0)) of error_velocity_mag_squ = 0.000576919916446

volFieldValue error_pressure_norm write:
    max(region0) of error_pres = 0.000905541396159

Courant Number mean: 0.0618980226078 max: 0.0763485854438
Time = 0.19875

time step continuity errors : sum local = 2.74791204239e-08, global = 2.60802146493e-20, cumulative = 6.78788581105e-19
DICPCG:  Solving for p, Initial residual = 0.332264774538, Final residual = 0.00312954927992, No Iterations 35
time step continuity errors : sum local = 3.99418901262e-08, global = 1.700127954e-20, cumulative = 6.95789860645e-19
DICPCG:  Solving for p, Initial residual = 0.0046882281451, Final residual = 3.73274799915e-05, No Iterations 82
time step continuity errors : sum local = 1.38370777046e-08, global = -1.13168877863e-20, cumulative = 6.84472972859e-19
DICPCG:  Solving for p, Initial residual = 0.332265407725, Final residual = 0.00314324330199, No Iterations 35
time step continuity errors : sum local = 4.53704073369e-08, global = -7.35068691593e-21, cumulative = 6.77122285943e-19
DICPCG:  Solving for p, Initial residual = 0.00235848882857, Final residual = 2.07031037936e-05, No Iterations 82
ExecutionTime = 13.42 s  ClockTime = 39 s

volFieldValue error_velocity_norm write:
    max(region0) of error_velocity_mag = 6.40291536764e-06

volFieldValue L2_error_velocity_norm write:
    sqrt(sum(region0)) of error_velocity_mag_squ = 0.000576919916446

volFieldValue error_pressure_norm write:
    max(region0) of error_pres = 0.000905541396159

Courant Number mean: 0.0618980215201 max: 0.0763485976502
Time = 0.2025

time step continuity errors : sum local = 2.74793252469e-08, global = -4.70143047897e-20, cumulative = 6.30107981154e-19
DICPCG:  Solving for p, Initial residual = 0.332264921137, Final residual = 0.00312948318279, No Iterations 35
time step continuity errors : sum local = 3.99407988835e-08, global = -4.91261387961e-20, cumulative = 5.80981842357e-19
DICPCG:  Solving for p, Initial residual = 0.00468805021232, Final residual = 4.16814830964e-05, No Iterations 82
time step continuity errors : sum local = 1.3836288111e-08, global = 2.24173422561e-20, cumulative = 6.03399184614e-19
DICPCG:  Solving for p, Initial residual = 0.332265241825, Final residual = 0.00314070137996, No Iterations 35
time step continuity errors : sum local = 4.53686661596e-08, global = 2.60307326829e-20, cumulative = 6.29429917296e-19
DICPCG:  Solving for p, Initial residual = 0.00235657049954, Final residual = 2.07172911514e-05, No Iterations 82
ExecutionTime = 13.66 s  ClockTime = 39 s

volFieldValue error_velocity_norm write:
    max(region0) of error_velocity_mag = 6.40291536764e-06

volFieldValue L2_error_velocity_norm write:
    sqrt(sum(region0)) of error_velocity_mag_squ = 0.000576919916446

volFieldValue error_pressure_norm write:
    max(region0) of error_pres = 0.000905541396159

Courant Number mean: 0.0618980204327 max: 0.0763486097348
Time = 0.20625

time step continuity errors : sum local = 2.74794887145e-08, global = 2.76777178095e-22, cumulative = 6.29706694475e-19
DICPCG:  Solving for p, Initial residual = 0.332264907905, Final residual = 0.00312964191435, No Iterations 35
time step continuity errors : sum local = 3.99401925384e-08, global = 1.44193668524e-20, cumulative = 6.44126061327e-19
DICPCG:  Solving for p, Initial residual = 0.00468830504353, Final residual = 3.77214746951e-05, No Iterations 82
time step continuity errors : sum local = 1.38378437926e-08, global = 1.18599825399e-20, cumulative = 6.55986043867e-19
DICPCG:  Solving for p, Initial residual = 0.332265426752, Final residual = 0.00314346852751, No Iterations 35
time step continuity errors : sum local = 4.53720343885e-08, global = -2.13794278382e-20, cumulative = 6.34606616029e-19
DICPCG:  Solving for p, Initial residual = 0.0023586518657, Final residual = 2.05747648396e-05, No Iterations 82
ExecutionTime = 13.91 s  ClockTime = 39 s

volFieldValue error_velocity_norm write:
    max(region0) of error_velocity_mag = 6.40291536764e-06

volFieldValue L2_error_velocity_norm write:
    sqrt(sum(region0)) of error_velocity_mag_squ = 0.000576919916446

volFieldValue error_pressure_norm write:
    max(region0) of error_pres = 0.000905541396159

Courant Number mean: 0.0618980193459 max: 0.0763486216759
Time = 0.21

time step continuity errors : sum local = 2.74795765628e-08, global = 2.98669931049e-20, cumulative = 6.64473609133e-19
DICPCG:  Solving for p, Initial residual = 0.33226489258, Final residual = 0.0031295131289, No Iterations 35
time step continuity errors : sum local = 3.9940936307e-08, global = -1.15194420148e-20, cumulative = 6.52954167119e-19
[...]
DICPCG:  Solving for p, Initial residual = 0.00468821788579, Final residual = 4.14887084009e-05, No Iterations 82
time step continuity errors : sum local = 1.38362302387e-08, global = 5.18705776172e-20, cumulative = 6.10988833221e-19
DICPCG:  Solving for p, Initial residual = 0.332265238755, Final residual = 0.00314073512237, No Iterations 35
time step continuity errors : sum local = 4.53692748227e-08, global = -7.56390189324e-21, cumulative = 6.03424931328e-19
DICPCG:  Solving for p, Initial residual = 0.00235659688607, Final residual = 2.07965976148e-05, No Iterations 82
ExecutionTime = 16.65 s  ClockTime = 42 s

volFieldValue error_velocity_norm write:
    max(region0) of error_velocity_mag = 6.40291536764e-06

volFieldValue L2_error_velocity_norm write:
    sqrt(sum(region0)) of error_velocity_mag_squ = 0.000576919916446

volFieldValue error_pressure_norm write:
    max(region0) of error_pres = 0.000905541396159

Courant Number mean: 0.0618980074267 max: 0.0763487337215
Time = 0.25125

time step continuity errors : sum local = 2.74796546868e-08, global = 1.4571031091e-20, cumulative = 6.17995962419e-19
DICPCG:  Solving for p, Initial residual = 0.332264917953, Final residual = 0.00312960575724, No Iterations 35
time step continuity errors : sum local = 3.99399561369e-08, global = -2.75520014314e-20, cumulative = 5.90443960987e-19
DICPCG:  Solving for p, Initial residual = 0.00468824165423, Final residual = 3.77198250633e-05, No Iterations 82
time step continuity errors : sum local = 1.38379314993e-08, global = -1.21023637169e-20, cumulative = 5.7834159727e-19
DICPCG:  Solving for p, Initial residual = 0.33226542687, Final residual = 0.00314346825657, No Iterations 35
time step continuity errors : sum local = 4.53725914316e-08, global = 1.3918512802e-20, cumulative = 5.92260110072e-19
DICPCG:  Solving for p, Initial residual = 0.00235865192277, Final residual = 2.07865088553e-05, No Iterations 82
ExecutionTime = 16.9 s  ClockTime = 42 s

volFieldValue error_velocity_norm write:
    max(region0) of error_velocity_mag = 6.40291536764e-06

volFieldValue L2_error_velocity_norm write:
    sqrt(sum(region0)) of error_velocity_mag_squ = 0.000576919916446

volFieldValue error_pressure_norm write:
    max(region0) of error_pres = 0.000905541396159

Courant Number mean: 0.0618980063461 max: 0.0763487414267
Time = 0.255

time step continuity errors : sum local = 2.74798132927e-08, global = -2.0870930232e-21, cumulative = 5.90173017049e-19
DICPCG:  Solving for p, Initial residual = 0.332264910425, Final residual = 0.00312958211069, No Iterations 35
time step continuity errors : sum local = 3.99420364605e-08, global = 2.5191953008e-20, cumulative = 6.15364970057e-19
DICPCG:  Solving for p, Initial residual = 0.0046882032166, Final residual = 4.12678826122e-05, No Iterations 82
time step continuity errors : sum local = 1.38364005003e-08, global = 6.55455023649e-21, cumulative = 6.21919520294e-19
DICPCG:  Solving for p, Initial residual = 0.3322652328, Final residual = 0.00314076415788, No Iterations 35
time step continuity errors : sum local = 4.53692514019e-08, global = 9.58381208396e-21, cumulative = 6.31503332378e-19
DICPCG:  Solving for p, Initial residual = 0.00235661979204, Final residual = 2.08067451757e-05, No Iterations 82
ExecutionTime = 17.14 s  ClockTime = 43 s

volFieldValue error_velocity_norm write:
    max(region0) of error_velocity_mag = 6.40291536764e-06

volFieldValue L2_error_velocity_norm write:
    sqrt(sum(region0)) of error_velocity_mag_squ = 0.000576919916446

volFieldValue error_pressure_norm write:
    max(region0) of error_pres = 0.000905541396159

Courant Number mean: 0.0618980052658 max: 0.0763487486199
Time = 0.25875

time step continuity errors : sum local = 2.74798864188e-08, global = 1.74800075079e-20, cumulative = 6.48983339886e-19
DICPCG:  Solving for p, Initial residual = 0.332264915942, Final residual = 0.00312960646, No Iterations 35
time step continuity errors : sum local = 3.99398230405e-08, global = -1.54027706487e-20, cumulative = 6.33580569237e-19
DICPCG:  Solving for p, Initial residual = 0.00468824604874, Final residual = 4.04695820337e-05, No Iterations 82
time step continuity errors : sum local = 1.38363916288e-08, global = -3.48344997838e-21, cumulative = 6.30097119258e-19
DICPCG:  Solving for p, Initial residual = 0.332265221085, Final residual = 0.00314090219107, No Iterations 35
time step continuity errors : sum local = 4.53693939616e-08, global = -1.04507522276e-20, cumulative = 6.19646367031e-19
DICPCG:  Solving for p, Initial residual = 0.00235672439264, Final residual = 1.97602132495e-05, No Iterations 82
ExecutionTime = 17.38 s  ClockTime = 43 s

volFieldValue error_velocity_norm write:
    max(region0) of error_velocity_mag = 6.40291536764e-06

volFieldValue L2_error_velocity_norm write:
    sqrt(sum(region0)) of error_velocity_mag_squ = 0.000576919916446

volFieldValue error_pressure_norm write:
    max(region0) of error_pres = 0.000905541396159

Courant Number mean: 0.0618980041856 max: 0.0763487552805
Time = 0.2625

time step continuity errors : sum local = 2.74794805153e-08, global = 2.61417653881e-20, cumulative = 6.45788132419e-19
DICPCG:  Solving for p, Initial residual = 0.332264799139, Final residual = 0.00312956648208, No Iterations 35
time step continuity errors : sum local = 3.9941995843e-08, global = 4.8257790629e-20, cumulative = 6.94045923048e-19
DICPCG:  Solving for p, Initial residual = 0.00468824356489, Final residual = 4.16935241458e-05, No Iterations 82
time step continuity errors : sum local = 1.38363437801e-08, global = -2.30754926389e-20, cumulative = 6.70970430409e-19
DICPCG:  Solving for p, Initial residual = 0.332265240719, Final residual = 0.0031407013258, No Iterations 35
time step continuity errors : sum local = 4.53684366591e-08, global = -2.67621002843e-20, cumulative = 6.44208330125e-19
DICPCG:  Solving for p, Initial residual = 0.00235656953545, Final residual = 1.88867241618e-05, No Iterations 82
ExecutionTime = 17.62 s  ClockTime = 43 s

volFieldValue error_velocity_norm write:
    max(region0) of error_velocity_mag = 6.40291536764e-06

volFieldValue L2_error_velocity_norm write:
    sqrt(sum(region0)) of error_velocity_mag_squ = 0.000576919916446

volFieldValue error_pressure_norm write:
    max(region0) of error_pres = 0.000905541396159

Courant Number mean: 0.0618980031053 max: 0.0763487613972
Time = 0.26625

time step continuity errors : sum local = 2.74786541847e-08, global = 1.18652123412e-20, cumulative = 6.56073542466e-19
DICPCG:  Solving for p, Initial residual = 0.332264875418, Final residual = 0.00313087214943, No Iterations 35
time step continuity errors : sum local = 3.99464913894e-08, global = -2.28180254965e-21, cumulative = 6.53791739916e-19
DICPCG:  Solving for p, Initial residual = 0.00469041761322, Final residual = 4.16230878059e-05, No Iterations 82
time step continuity errors : sum local = 1.38364817522e-08, global = 5.14902101436e-20, cumulative = 7.0528195006e-19
DICPCG:  Solving for p, Initial residual = 0.332265251428, Final residual = 0.00314077089689, No Iterations 35
time step continuity errors : sum local = 4.53692539063e-08, global = 3.11575471562e-21, cumulative = 7.08397704776e-19
DICPCG:  Solving for p, Initial residual = 0.00235662060599, Final residual = 2.08010901181e-05, No Iterations 82
ExecutionTime = 17.87 s  ClockTime = 43 s

volFieldValue error_velocity_norm write:
    max(region0) of error_velocity_mag = 6.40291536764e-06

volFieldValue L2_error_velocity_norm write:
    sqrt(sum(region0)) of error_velocity_mag_squ = 0.000576919916446

volFieldValue error_pressure_norm write:
    max(region0) of error_pres = 0.000905541396159

Courant Number mean: 0.0618980020263 max: 0.0763487669014
Time = 0.27

time step continuity errors : sum local = 2.74779250233e-08, global = 3.38408375311e-21, cumulative = 7.11781788529e-19
DICPCG:  Solving for p, Initial residual = 0.332265016636, Final residual = 0.00312967130208, No Iterations 35
time step continuity errors : sum local = 3.99389436518e-08, global = -2.57658231309e-20, cumulative = 6.86015965398e-19
DICPCG:  Solving for p, Initial residual = 0.00468825704389, Final residual = 4.03442396493e-05, No Iterations 82
time step continuity errors : sum local = 1.3835408065e-08, global = -1.16282621117e-21, cumulative = 6.84853139187e-19
DICPCG:  Solving for p, Initial residual = 0.33226524784, Final residual = 0.00314092508558, No Iterations 35
time step continuity errors : sum local = 4.53681518014e-08, global = -4.09453214921e-21, cumulative = 6.80758607037e-19
DICPCG:  Solving for p, Initial residual = 0.00235674284811, Final residual = 2.0600582279e-05, No Iterations 82
ExecutionTime = 18.11 s  ClockTime = 44 s

volFieldValue error_velocity_norm write:
    max(region0) of error_velocity_mag = 6.40291536764e-06

volFieldValue L2_error_velocity_norm write:
    sqrt(sum(region0)) of error_velocity_mag_squ = 0.000576919916446

volFieldValue error_pressure_norm write:
    max(region0) of error_pres = 0.000905541396159

Courant Number mean: 0.0618980009469 max: 0.0763487718239
Time = 0.27375

time step continuity errors : sum local = 2.74784078562e-08, global = 2.45913304398e-20, cumulative = 7.05349937477e-19
DICPCG:  Solving for p, Initial residual = 0.332264912742, Final residual = 0.00312962874542, No Iterations 35
time step continuity errors : sum local = 3.99404752819e-08, global = 3.36714724265e-20, cumulative = 7.39021409904e-19
DICPCG:  Solving for p, Initial residual = 0.00468826632729, Final residual = 4.15911211361e-05, No Iterations 82
time step continuity errors : sum local = 1.38357407073e-08, global = -1.23463540636e-21, cumulative = 7.37786774497e-19
DICPCG:  Solving for p, Initial residual = 0.332265252327, Final residual = 0.00314071947327, No Iterations 35
time step continuity errors : sum local = 4.53680398251e-08, global = -2.42155893289e-20, cumulative = 7.13571185168e-19
DICPCG:  Solving for p, Initial residual = 0.00235658429492, Final residual = 2.07464062813e-05, No Iterations 82
ExecutionTime = 18.35 s  ClockTime = 44 s

volFieldValue error_velocity_norm write:
    max(region0) of error_velocity_mag = 6.40291536764e-06

volFieldValue L2_error_velocity_norm write:
    sqrt(sum(region0)) of error_velocity_mag_squ = 0.000576919916446

volFieldValue error_pressure_norm write:
    max(region0) of error_pres = 0.000905541396159

Courant Number mean: 0.0618979998678 max: 0.0763487762204
Time = 0.2775

time step continuity errors : sum local = 2.74788598637e-08, global = -2.82634555585e-20, cumulative = 6.8530772961e-19
DICPCG:  Solving for p, Initial residual = 0.33226491901, Final residual = 0.00312958399897, No Iterations 35
time step continuity errors : sum local = 3.99398762985e-08, global = -4.49795097798e-20, cumulative = 6.4032821983e-19
DICPCG:  Solving for p, Initial residual = 0.00468820354348, Final residual = 4.16892161986e-05, No Iterations 82
time step continuity errors : sum local = 1.38358610641e-08, global = -1.33359933922e-20, cumulative = 6.26992226438e-19
DICPCG:  Solving for p, Initial residual = 0.332265246916, Final residual = 0.00314069954113, No Iterations 35
time step continuity errors : sum local = 4.53681544245e-08, global = -4.14224402904e-20, cumulative = 5.85569786148e-19
DICPCG:  Solving for p, Initial residual = 0.00235656866387, Final residual = 1.95842060323e-05, No Iterations 82
ExecutionTime = 18.6 s  ClockTime = 44 s

volFieldValue error_velocity_norm write:
    max(region0) of error_velocity_mag = 6.40291536764e-06

volFieldValue L2_error_velocity_norm write:
    sqrt(sum(region0)) of error_velocity_mag_squ = 0.000576919916446

volFieldValue error_pressure_norm write:
    max(region0) of error_pres = 0.000905541396159

Courant Number mean: 0.061897998789 max: 0.0763487800605
Time = 0.28125

time step continuity errors : sum local = 2.74786725924e-08, global = -1.72840911042e-20, cumulative = 5.68285695043e-19
DICPCG:  Solving for p, Initial residual = 0.332264796995, Final residual = 0.00312952432677, No Iterations 35
time step continuity errors : sum local = 3.99414411626e-08, global = -4.40832022902e-21, cumulative = 5.63877374814e-19
DICPCG:  Solving for p, Initial residual = 0.00468818009271, Final residual = 4.03162739951e-05, No Iterations 82
time step continuity errors : sum local = 1.38356109737e-08, global = -2.87932746625e-20, cumulative = 5.35084100152e-19
DICPCG:  Solving for p, Initial residual = 0.332265232225, Final residual = 0.00314090595072, No Iterations 35
time step continuity errors : sum local = 4.53678271658e-08, global = 1.01261022527e-20, cumulative = 5.45210202404e-19
DICPCG:  Solving for p, Initial residual = 0.00235672707881, Final residual = 2.07621762901e-05, No Iterations 82
ExecutionTime = 18.84 s  ClockTime = 44 s

volFieldValue error_velocity_norm write:
    max(region0) of error_velocity_mag = 6.40291536764e-06

volFieldValue L2_error_velocity_norm write:
    sqrt(sum(region0)) of error_velocity_mag_squ = 0.000576919916446

volFieldValue error_pressure_norm write:
    max(region0) of error_pres = 0.000905541396159

Courant Number mean: 0.0618979977108 max: 0.0763487833199
Time = 0.285

time step continuity errors : sum local = 2.74790190401e-08, global = -9.27444922065e-21, cumulative = 5.35935753184e-19
DICPCG:  Solving for p, Initial residual = 0.332264930147, Final residual = 0.00312948519034, No Iterations 35
time step continuity errors : sum local = 3.99387765823e-08, global = 1.90417066436e-20, cumulative = 5.54977459827e-19
DICPCG:  Solving for p, Initial residual = 0.00468805215793, Final residual = 4.16873826555e-05, No Iterations 82
time step continuity errors : sum local = 1.38359683655e-08, global = -2.39396167356e-20, cumulative = 5.31037843092e-19
DICPCG:  Solving for p, Initial residual = 0.332265245248, Final residual = 0.00314069249192, No Iterations 35
time step continuity errors : sum local = 4.53683782637e-08, global = -2.25887188228e-21, cumulative = 5.2877897121e-19
DICPCG:  Solving for p, Initial residual = 0.00235656329727, Final residual = 2.07968562809e-05, No Iterations 82
ExecutionTime = 19.09 s  ClockTime = 44 s

volFieldValue error_velocity_norm write:
    max(region0) of error_velocity_mag = 6.40291536764e-06

volFieldValue L2_error_velocity_norm write:
    sqrt(sum(region0)) of error_velocity_mag_squ = 0.000576919916446

volFieldValue error_pressure_norm write:
    max(region0) of error_pres = 0.000905541396159

Courant Number mean: 0.0618979966327 max: 0.0763487859982
Time = 0.28875

time step continuity errors : sum local = 2.74793168546e-08, global = -1.67554788774e-21, cumulative = 5.27103423322e-19
DICPCG:  Solving for p, Initial residual = 0.332264921465, Final residual = 0.00312963095069, No Iterations 35
time step continuity errors : sum local = 3.99397919086e-08, global = 1.22942571965e-20, cumulative = 5.39397680518e-19
DICPCG:  Solving for p, Initial residual = 0.00468827581561, Final residual = 4.09470932999e-05, No Iterations 82
time step continuity errors : sum local = 1.38359600216e-08, global = -1.88280893739e-20, cumulative = 5.20569591144e-19
DICPCG:  Solving for p, Initial residual = 0.332265232565, Final residual = 0.00314080569077, No Iterations 35
time step continuity errors : sum local = 4.53686859593e-08, global = -1.52026301747e-21, cumulative = 5.19049328127e-19
DICPCG:  Solving for p, Initial residual = 0.00235665018996, Final residual = 2.08012145866e-05, No Iterations 82
ExecutionTime = 19.33 s  ClockTime = 45 s

volFieldValue error_velocity_norm write:
    max(region0) of error_velocity_mag = 6.40291536764e-06

volFieldValue L2_error_velocity_norm write:
    sqrt(sum(region0)) of error_velocity_mag_squ = 0.000576919916446

volFieldValue error_pressure_norm write:
    max(region0) of error_pres = 0.000905541396159

Courant Number mean: 0.0618979955548 max: 0.0763487881079
Time = 0.2925

time step continuity errors : sum local = 2.74795331613e-08, global = -4.53222629131e-20, cumulative = 4.73727065214e-19
DICPCG:  Solving for p, Initial residual = 0.332264918519, Final residual = 0.00312960278575, No Iterations 35
time step continuity errors : sum local = 3.99397813659e-08, global = 1.55514176942e-20, cumulative = 4.89278482908e-19
DICPCG:  Solving for p, Initial residual = 0.00468823798297, Final residual = 3.61576874178e-05, No Iterations 82
time step continuity errors : sum local = 1.38366117479e-08, global = 1.9099033312e-20, cumulative = 5.0837751622e-19
DICPCG:  Solving for p, Initial residual = 0.33226535368, Final residual = 0.00314246493746, No Iterations 35
time step continuity errors : sum local = 4.5370772227e-08, global = 1.55300961965e-20, cumulative = 5.23907612417e-19
DICPCG:  Solving for p, Initial residual = 0.00235792759345, Final residual = 2.08020228655e-05, No Iterations 82
ExecutionTime = 19.57 s  ClockTime = 45 s

volFieldValue error_velocity_norm write:
    max(region0) of error_velocity_mag = 6.40291536764e-06

volFieldValue L2_error_velocity_norm write:
    sqrt(sum(region0)) of error_velocity_mag_squ = 0.000576919916446

volFieldValue error_pressure_norm write:
    max(region0) of error_pres = 0.000905541396159

Courant Number mean: 0.0618979944772 max: 0.0763487896512
Time = 0.29625

time step continuity errors : sum local = 2.74796944489e-08, global = 2.47007539754e-22, cumulative = 5.24154619956e-19
DICPCG:  Solving for p, Initial residual = 0.332264913443, Final residual = 0.00312959704365, No Iterations 35
time step continuity errors : sum local = 3.99411976817e-08, global = -5.09945858944e-21, cumulative = 5.19055161367e-19
DICPCG:  Solving for p, Initial residual = 0.00468822738431, Final residual = 4.1492067861e-05, No Iterations 82
time step continuity errors : sum local = 1.38362689933e-08, global = 1.79872982369e-20, cumulative = 5.37042459604e-19
DICPCG:  Solving for p, Initial residual = 0.332265234645, Final residual = 0.00314074194154, No Iterations 35
time step continuity errors : sum local = 4.53690555601e-08, global = 1.86985512178e-20, cumulative = 5.55741010822e-19
DICPCG:  Solving for p, Initial residual = 0.00235660243178, Final residual = 2.07966869782e-05, No Iterations 82
ExecutionTime = 19.82 s  ClockTime = 45 s

volFieldValue error_velocity_norm write:
    max(region0) of error_velocity_mag = 6.40291536764e-06

volFieldValue L2_error_velocity_norm write:
    sqrt(sum(region0)) of error_velocity_mag_squ = 0.000576919916446

volFieldValue error_pressure_norm write:
    max(region0) of error_pres = 0.000905541396159

Courant Number mean: 0.0618979934008 max: 0.076348790628
Time = 0.3

time step continuity errors : sum local = 2.74797805519e-08, global = -2.67041701773e-21, cumulative = 5.53070593804e-19
DICPCG:  Solving for p, Initial residual = 0.332264914907, Final residual = 0.00312961927614, No Iterations 35
time step continuity errors : sum local = 3.99397798444e-08, global = 1.24199735746e-20, cumulative = 5.65490567378e-19
DICPCG:  Solving for p, Initial residual = 0.00468826709879, Final residual = 4.16874376964e-05, No Iterations 82
time step continuity errors : sum local = 1.38363802394e-08, global = 2.62171952149e-20, cumulative = 5.91707762593e-19
DICPCG:  Solving for p, Initial residual = 0.332265237412, Final residual = 0.00314069320779, No Iterations 35
time step continuity errors : sum local = 4.53690100751e-08, global = -5.20638791203e-20, cumulative = 5.39643883473e-19
DICPCG:  Solving for p, Initial residual = 0.00235656369946, Final residual = 2.07855881338e-05, No Iterations 82
ExecutionTime = 20.06 s  ClockTime = 45 s

volFieldValue error_velocity_norm write:
    max(region0) of error_velocity_mag = 6.40291536764e-06

volFieldValue L2_error_velocity_norm write:
    sqrt(sum(region0)) of error_velocity_mag_squ = 0.000576919916446

volFieldValue error_pressure_norm write:
    max(region0) of error_pres = 0.000905541396159

End

