/*---------------------------------------------------------------------------*\
| =========                 |                                                 |
| \\      /  F ield         | OpenFOAM: The Open Source CFD Toolbox           |
|  \\    /   O peration     | Version:  2406                                  |
|   \\  /    A nd           | Website:  www.openfoam.com                      |
|    \\/     M anipulation  |                                                 |
\*---------------------------------------------------------------------------*/
Build  : _630d60de3b-20240620 OPENFOAM=2406 version=v2406
Arch   : "LSB;label=32;scalar=64"
Exec   : erkFoam
Date   : Sep 10 2024
Time   : 00:25:40
Host   : hakan-X556UQK
PID    : 12141
I/O    : uncollated
Case   : /home/hakan/courses/testSimulation/tgv2dTests/tgv2d_temporal/rk4FoamMultigrid/rk4_nu0.0000001/TGV_temporal
nProcs : 1
trapFpe: Floating point exception trapping enabled (FOAM_SIGFPE).
fileModificationChecking : Monitoring run-time modified files using timeStampMaster (fileModificationSkew 5, maxFileModificationPolls 20)
allowSystemOperations : Allowing user-supplied system call operations

// * * * * * * * * * * * * * * * * * * * * * * * * * * * * * * * * * * * * * //
Create time

Create mesh for time = 0


PISO: Operating solver in PISO mode

Reading field p

Using #codeStream at line 19 in file "0/p"
Using #codeStream with "/home/hakan/courses/testSimulation/tgv2dTests/tgv2d_temporal/rk4FoamMultigrid/rk4_nu0.0000001/TGV_temporal/dynamicCode/platforms/linux64GccDPInt32Opt/lib/libcodeStream_537564b8bd232f4ddf4797bc6f60eef024868c2e.so"
Creating new library in "dynamicCode/_537564b8bd232f4ddf4797bc6f60eef024868c2e/platforms/linux64GccDPInt32Opt/lib/libcodeStream_537564b8bd232f4ddf4797bc6f60eef024868c2e.so"
Invoking wmake libso /home/hakan/courses/testSimulation/tgv2dTests/tgv2d_temporal/rk4FoamMultigrid/rk4_nu0.0000001/TGV_temporal/dynamicCode/_537564b8bd232f4ddf4797bc6f60eef024868c2e
wmake libso /home/hakan/courses/testSimulation/tgv2dTests/tgv2d_temporal/rk4FoamMultigrid/rk4_nu0.0000001/TGV_temporal/dynamicCode/_537564b8bd232f4ddf4797bc6f60eef024868c2e
    dep: codeStreamTemplate.C
    Ctoo: codeStreamTemplate.C
    link: /home/hakan/courses/testSimulation/tgv2dTests/tgv2d_temporal/rk4FoamMultigrid/rk4_nu0.0000001/TGV_temporal/dynamicCode/_537564b8bd232f4ddf4797bc6f60eef024868c2e/../platforms/linux64GccDPInt32Opt/lib/libcodeStream_537564b8bd232f4ddf4797bc6f60eef024868c2e.so
Reading field U

Using #codeStream at line 19 in file "0/U"
Using #codeStream with "/home/hakan/courses/testSimulation/tgv2dTests/tgv2d_temporal/rk4FoamMultigrid/rk4_nu0.0000001/TGV_temporal/dynamicCode/platforms/linux64GccDPInt32Opt/lib/libcodeStream_18dd48bdf5aea29696d9cbfe8eb27bc690b7dc03.so"
Creating new library in "dynamicCode/_18dd48bdf5aea29696d9cbfe8eb27bc690b7dc03/platforms/linux64GccDPInt32Opt/lib/libcodeStream_18dd48bdf5aea29696d9cbfe8eb27bc690b7dc03.so"
Invoking wmake libso /home/hakan/courses/testSimulation/tgv2dTests/tgv2d_temporal/rk4FoamMultigrid/rk4_nu0.0000001/TGV_temporal/dynamicCode/_18dd48bdf5aea29696d9cbfe8eb27bc690b7dc03
wmake libso /home/hakan/courses/testSimulation/tgv2dTests/tgv2d_temporal/rk4FoamMultigrid/rk4_nu0.0000001/TGV_temporal/dynamicCode/_18dd48bdf5aea29696d9cbfe8eb27bc690b7dc03
    dep: codeStreamTemplate.C
    Ctoo: codeStreamTemplate.C
    link: /home/hakan/courses/testSimulation/tgv2dTests/tgv2d_temporal/rk4FoamMultigrid/rk4_nu0.0000001/TGV_temporal/dynamicCode/_18dd48bdf5aea29696d9cbfe8eb27bc690b7dc03/../platforms/linux64GccDPInt32Opt/lib/libcodeStream_18dd48bdf5aea29696d9cbfe8eb27bc690b7dc03.so
Reading field dU1

Using #codeStream at line 19 in file "0/dU1"
Reading field dU2

Using #codeStream at line 19 in file "0/dU2"
Reading field dU3

Using #codeStream at line 19 in file "0/dU"
Reading field Uold

Using #codeStream at line 19 in file "0/Uold"
Reading field dU

Using #codeStream at line 19 in file "0/dU"
Reading/calculating face flux field phi

Selecting incompressible transport model Newtonian
Selecting turbulence model type laminar
Selecting laminar stress model Stokes
No MRF models present

No finite volume options present

Starting time loop

Using dynamicCode for functionObject diff at line 51 in "/home/hakan/courses/testSimulation/tgv2dTests/tgv2d_temporal/rk4FoamMultigrid/rk4_nu0.0000001/TGV_temporal/system/controlDict/functions/diff"
Creating new library in "dynamicCode/diff/platforms/linux64GccDPInt32Opt/lib/libdiff_d924c92ec3fe0b16fec6b8892a9fc1c20fa93dd8.so"
Invoking wmake libso /home/hakan/courses/testSimulation/tgv2dTests/tgv2d_temporal/rk4FoamMultigrid/rk4_nu0.0000001/TGV_temporal/dynamicCode/diff
wmake libso /home/hakan/courses/testSimulation/tgv2dTests/tgv2d_temporal/rk4FoamMultigrid/rk4_nu0.0000001/TGV_temporal/dynamicCode/diff
    dep: functionObjectTemplate.C
    Ctoo: functionObjectTemplate.C
    link: /home/hakan/courses/testSimulation/tgv2dTests/tgv2d_temporal/rk4FoamMultigrid/rk4_nu0.0000001/TGV_temporal/dynamicCode/diff/../platforms/linux64GccDPInt32Opt/lib/libdiff_d924c92ec3fe0b16fec6b8892a9fc1c20fa93dd8.so
Time = 0.015

Courant Number mean: 0.247592318611 max: 0.305393450017
GAMG:  Solving for p, Initial residual = 0.000903861357497, Final residual = 6.58321209337e-06, No Iterations 6
time step continuity errors : sum local = 7.9742726757e-14, global = 1.11806693494e-19, cumulative = 1.11806693494e-19
GAMG:  Solving for p, Initial residual = 3.71569345322e-05, Final residual = 1.70141685402e-07, No Iterations 6
time step continuity errors : sum local = 2.18141523436e-07, global = 8.21513284658e-20, cumulative = 1.9395802196e-19
GAMG:  Solving for p, Initial residual = 1.78444144527e-05, Final residual = 1.78380229427e-07, No Iterations 5
time step continuity errors : sum local = 4.37754776183e-07, global = 4.12269261791e-20, cumulative = 2.35184948139e-19
ExecutionTime = 0.59 s  ClockTime = 27 s

    Reading error_velocity_mag (volScalarField)
    Reading error_velocity_mag_squ (volScalarField)
    Reading error_pres (volScalarField)
volFieldValue error_velocity_norm write:
    max(region0) of error_velocity_mag = 2.54854835953e-05

volFieldValue L2_error_velocity_norm write:
    sqrt(sum(region0)) of error_velocity_mag_squ = 0.00230918854773

volFieldValue error_pressure_norm write:
    max(region0) of error_pres = 0.000939401532299

Time = 0.03

Courant Number mean: 0.247592268843 max: 0.305393466075
GAMG:  Solving for p, Initial residual = 0.00241631037252, Final residual = 1.77408213269e-05, No Iterations 6
time step continuity errors : sum local = 4.37778285695e-07, global = -4.27524189979e-20, cumulative = 1.92432529141e-19
GAMG:  Solving for p, Initial residual = 0.00118985311798, Final residual = 8.52171449361e-06, No Iterations 6
time step continuity errors : sum local = 2.22160146952e-07, global = 9.79437193137e-20, cumulative = 2.90376248455e-19
GAMG:  Solving for p, Initial residual = 2.56575270605e-05, Final residual = 1.44903136896e-07, No Iterations 6
time step continuity errors : sum local = 4.36888758123e-07, global = 4.85583030593e-20, cumulative = 3.38934551514e-19
ExecutionTime = 0.9 s  ClockTime = 27 s

volFieldValue error_velocity_norm write:
    max(region0) of error_velocity_mag = 2.54854835953e-05

volFieldValue L2_error_velocity_norm write:
    sqrt(sum(region0)) of error_velocity_mag_squ = 0.00230918854773

volFieldValue error_pressure_norm write:
    max(region0) of error_pres = 0.000939401532299

Time = 0.045

Courant Number mean: 0.247592202511 max: 0.305393486598
GAMG:  Solving for p, Initial residual = 0.00478802533193, Final residual = 3.44469524415e-05, No Iterations 6
time step continuity errors : sum local = 4.38807725431e-07, global = -8.84657101335e-20, cumulative = 2.5046884138e-19
GAMG:  Solving for p, Initial residual = 0.00118232931346, Final residual = 8.33397463971e-06, No Iterations 6
time step continuity errors : sum local = 2.24277770029e-07, global = 2.18267769982e-20, cumulative = 2.72295618379e-19
GAMG:  Solving for p, Initial residual = 2.54904851142e-05, Final residual = 1.42772564771e-07, No Iterations 6
time step continuity errors : sum local = 4.36931803318e-07, global = -1.41748535256e-19, cumulative = 1.30547083122e-19
ExecutionTime = 1.19 s  ClockTime = 28 s

volFieldValue error_velocity_norm write:
    max(region0) of error_velocity_mag = 2.54854835953e-05

volFieldValue L2_error_velocity_norm write:
    sqrt(sum(region0)) of error_velocity_mag_squ = 0.00230918854773

volFieldValue error_pressure_norm write:
    max(region0) of error_pres = 0.000939401532299

Time = 0.06

Courant Number mean: 0.247592135552 max: 0.30539350871
GAMG:  Solving for p, Initial residual = 0.0047623736509, Final residual = 3.38596821041e-05, No Iterations 6
time step continuity errors : sum local = 4.38810280414e-07, global = -2.09385153568e-20, cumulative = 1.09608567766e-19
GAMG:  Solving for p, Initial residual = 0.0011826769145, Final residual = 8.34009965498e-06, No Iterations 6
time step continuity errors : sum local = 2.24205786702e-07, global = -7.41634103724e-20, cumulative = 3.54451573931e-20
GAMG:  Solving for p, Initial residual = 2.55001375658e-05, Final residual = 1.42507809697e-07, No Iterations 6
time step continuity errors : sum local = 4.36930449173e-07, global = 7.10738046635e-20, cumulative = 1.06518962057e-19
ExecutionTime = 1.5 s  ClockTime = 28 s

volFieldValue error_velocity_norm write:
    max(region0) of error_velocity_mag = 2.54854835953e-05

volFieldValue L2_error_velocity_norm write:
    sqrt(sum(region0)) of error_velocity_mag_squ = 0.00230918854773

volFieldValue error_pressure_norm write:
    max(region0) of error_pres = 0.000939401532299

Time = 0.075

Courant Number mean: 0.247592068613 max: 0.305393530907
GAMG:  Solving for p, Initial residual = 0.00476342091899, Final residual = 3.38781142655e-05, No Iterations 6
time step continuity errors : sum local = 4.38810322624e-07, global = 9.28169048403e-21, cumulative = 1.15800652541e-19
GAMG:  Solving for p, Initial residual = 0.00118266746263, Final residual = 8.34008048345e-06, No Iterations 6
time step continuity errors : sum local = 2.24207852044e-07, global = 5.436740546e-20, cumulative = 1.70168058001e-19
GAMG:  Solving for p, Initial residual = 2.55002499274e-05, Final residual = 1.42582698096e-07, No Iterations 6
time step continuity errors : sum local = 4.36930314969e-07, global = 1.10517770881e-19, cumulative = 2.80685828882e-19
ExecutionTime = 1.77 s  ClockTime = 28 s

volFieldValue error_velocity_norm write:
    max(region0) of error_velocity_mag = 2.54854835953e-05

volFieldValue L2_error_velocity_norm write:
    sqrt(sum(region0)) of error_velocity_mag_squ = 0.00230918854773

volFieldValue error_pressure_norm write:
    max(region0) of error_pres = 0.000939401532299

Time = 0.09

Courant Number mean: 0.247592001688 max: 0.305393553153
GAMG:  Solving for p, Initial residual = 0.0047633921041, Final residual = 3.3878063843e-05, No Iterations 6
time step continuity errors : sum local = 4.38810207363e-07, global = 2.72786437388e-20, cumulative = 3.07964472621e-19
GAMG:  Solving for p, Initial residual = 0.00118266743161, Final residual = 8.34004477293e-06, No Iterations 6
time step continuity errors : sum local = 2.24207790414e-07, global = -1.98024415909e-20, cumulative = 2.8816203103e-19
GAMG:  Solving for p, Initial residual = 2.55005068796e-05, Final residual = 1.42569530542e-07, No Iterations 6
time step continuity errors : sum local = 4.36930191693e-07, global = 6.95161284518e-21, cumulative = 2.95113643875e-19
ExecutionTime = 2.06 s  ClockTime = 28 s

volFieldValue error_velocity_norm write:
    max(region0) of error_velocity_mag = 2.54854835953e-05

volFieldValue L2_error_velocity_norm write:
    sqrt(sum(region0)) of error_velocity_mag_squ = 0.00230918854773

volFieldValue error_pressure_norm write:
    max(region0) of error_pres = 0.000939401532299

Time = 0.105

Courant Number mean: 0.247591934783 max: 0.305393575532
GAMG:  Solving for p, Initial residual = 0.00476339264228, Final residual = 3.38779546309e-05, No Iterations 6
time step continuity errors : sum local = 4.38810099034e-07, global = -9.76315404035e-20, cumulative = 1.97482103472e-19
GAMG:  Solving for p, Initial residual = 0.00118266762467, Final residual = 8.3400510527e-06, No Iterations 6
time step continuity errors : sum local = 2.24207699821e-07, global = -1.12171997271e-19, cumulative = 8.53101062002e-20
GAMG:  Solving for p, Initial residual = 2.55007501758e-05, Final residual = 1.42572632015e-07, No Iterations 6
time step continuity errors : sum local = 4.36930052028e-07, global = 8.05228487901e-21, cumulative = 9.33623910792e-20
ExecutionTime = 2.37 s  ClockTime = 29 s

volFieldValue error_velocity_norm write:
    max(region0) of error_velocity_mag = 2.54854835953e-05

volFieldValue L2_error_velocity_norm write:
    sqrt(sum(region0)) of error_velocity_mag_squ = 0.00230918854773

volFieldValue error_pressure_norm write:
    max(region0) of error_pres = 0.000939401532299

Time = 0.12

Courant Number mean: 0.2475918679 max: 0.305393598065
GAMG:  Solving for p, Initial residual = 0.00476339373777, Final residual = 3.38779741372e-05, No Iterations 6
time step continuity errors : sum local = 4.38809973328e-07, global = 1.10067203382e-20, cumulative = 1.04369111417e-19
GAMG:  Solving for p, Initial residual = 0.00118266767057, Final residual = 8.34004871845e-06, No Iterations 6
time step continuity errors : sum local = 2.2420762827e-07, global = 8.83434132409e-21, cumulative = 1.13203452742e-19
GAMG:  Solving for p, Initial residual = 2.55009736025e-05, Final residual = 1.42572843383e-07, No Iterations 6
time step continuity errors : sum local = 4.36929912167e-07, global = -4.55137541003e-20, cumulative = 6.76896986412e-20
ExecutionTime = 2.67 s  ClockTime = 29 s

volFieldValue error_velocity_norm write:
    max(region0) of error_velocity_mag = 2.54854835953e-05

volFieldValue L2_error_velocity_norm write:
    sqrt(sum(region0)) of error_velocity_mag_squ = 0.00230918854773

volFieldValue error_pressure_norm write:
    max(region0) of error_pres = 0.000939401532299

Time = 0.135

Courant Number mean: 0.247591801044 max: 0.305393620741
GAMG:  Solving for p, Initial residual = 0.00476339446987, Final residual = 3.3877967305e-05, No Iterations 6
time step continuity errors : sum local = 4.38809842464e-07, global = -1.18048684797e-19, cumulative = -5.03589861557e-20
GAMG:  Solving for p, Initial residual = 0.00118266770003, Final residual = 8.34004785143e-06, No Iterations 6
time step continuity errors : sum local = 2.24207553525e-07, global = 1.31990530559e-19, cumulative = 8.1631544403e-20
GAMG:  Solving for p, Initial residual = 2.55011877842e-05, Final residual = 1.42573518769e-07, No Iterations 6
time step continuity errors : sum local = 4.36929771244e-07, global = 5.96744469331e-20, cumulative = 1.41305991336e-19
ExecutionTime = 2.97 s  ClockTime = 29 s

volFieldValue error_velocity_norm write:
    max(region0) of error_velocity_mag = 2.54854835953e-05

volFieldValue L2_error_velocity_norm write:
    sqrt(sum(region0)) of error_velocity_mag_squ = 0.00230918854773

volFieldValue error_pressure_norm write:
    max(region0) of error_pres = 0.000939401532299

Time = 0.15

Courant Number mean: 0.24759173422 max: 0.305393643581
GAMG:  Solving for p, Initial residual = 0.00476339520759, Final residual = 3.38779650525e-05, No Iterations 6
time step continuity errors : sum local = 4.3880970914e-07, global = -9.19543899133e-20, cumulative = 4.93516014228e-20
GAMG:  Solving for p, Initial residual = 0.00118266768472, Final residual = 8.34004669127e-06, No Iterations 6
time step continuity errors : sum local = 2.2420748003e-07, global = 5.34340870688e-20, cumulative = 1.02785688492e-19
GAMG:  Solving for p, Initial residual = 2.55013941522e-05, Final residual = 1.4257411841e-07, No Iterations 6
time step continuity errors : sum local = 4.36929630956e-07, global = 2.06102447503e-20, cumulative = 1.23395933242e-19
ExecutionTime = 3.29 s  ClockTime = 30 s

volFieldValue error_velocity_norm write:
    max(region0) of error_velocity_mag = 2.54854835953e-05

volFieldValue L2_error_velocity_norm write:
    sqrt(sum(region0)) of error_velocity_mag_squ = 0.00230918854773

volFieldValue error_pressure_norm write:
    max(region0) of error_pres = 0.000939401532299

Time = 0.165

Courant Number mean: 0.247591667429 max: 0.305393666605
GAMG:  Solving for p, Initial residual = 0.00476339588234, Final residual = 3.38779619786e-05, No Iterations 6
time step continuity errors : sum local = 4.38809577398e-07, global = -6.47594229957e-20, cumulative = 5.86365102461e-20
GAMG:  Solving for p, Initial residual = 0.00118266762776, Final residual = 8.34004552603e-06, No Iterations 6
time step continuity errors : sum local = 2.24207407265e-07, global = -1.67160542212e-20, cumulative = 4.19204560248e-20
GAMG:  Solving for p, Initial residual = 2.55015938067e-05, Final residual = 1.42574740679e-07, No Iterations 6
time step continuity errors : sum local = 4.36929492041e-07, global = 6.90076308456e-20, cumulative = 1.1092808687e-19
ExecutionTime = 3.6 s  ClockTime = 30 s

volFieldValue error_velocity_norm write:
    max(region0) of error_velocity_mag = 2.54854835953e-05

volFieldValue L2_error_velocity_norm write:
    sqrt(sum(region0)) of error_velocity_mag_squ = 0.00230918854773

volFieldValue error_pressure_norm write:
    max(region0) of error_pres = 0.000939401532299

Time = 0.18

Courant Number mean: 0.247591600677 max: 0.305393689836
GAMG:  Solving for p, Initial residual = 0.00476339651152, Final residual = 3.38779589662e-05, No Iterations 6
time step continuity errors : sum local = 4.38809448973e-07, global = -1.34455778447e-19, cumulative = -2.35276915769e-20
GAMG:  Solving for p, Initial residual = 0.0011826675284, Final residual = 8.34004430555e-06, No Iterations 6
time step continuity errors : sum local = 2.24207335436e-07, global = -2.61425699729e-20, cumulative = -4.96702615497e-20
GAMG:  Solving for p, Initial residual = 2.55017868452e-05, Final residual = 1.42575377554e-07, No Iterations 6
time step continuity errors : sum local = 4.36929355014e-07, global = 5.02962062706e-20, cumulative = 6.25944720878e-22
ExecutionTime = 3.89 s  ClockTime = 30 s

volFieldValue error_velocity_norm write:
    max(region0) of error_velocity_mag = 2.54854835953e-05

volFieldValue L2_error_velocity_norm write:
    sqrt(sum(region0)) of error_velocity_mag_squ = 0.00230918854773

volFieldValue error_pressure_norm write:
    max(region0) of error_pres = 0.000939401532299

Time = 0.195

Courant Number mean: 0.247591533967 max: 0.305393713291
GAMG:  Solving for p, Initial residual = 0.00476339709881, Final residual = 3.38779558506e-05, No Iterations 6
time step continuity errors : sum local = 4.38809324296e-07, global = 9.4168607338e-20, cumulative = 9.47945520589e-20
GAMG:  Solving for p, Initial residual = 0.00118266738733, Final residual = 8.34004302979e-06, No Iterations 6
time step continuity errors : sum local = 2.24207264518e-07, global = -1.62947736095e-19, cumulative = -6.81531840358e-20
GAMG:  Solving for p, Initial residual = 2.550197306e-05, Final residual = 1.42576033151e-07, No Iterations 6
time step continuity errors : sum local = 4.36929220159e-07, global = 1.05638768533e-19, cumulative = 3.74855844968e-20
ExecutionTime = 4.19 s  ClockTime = 31 s

volFieldValue error_velocity_norm write:
    max(region0) of error_velocity_mag = 2.54854835953e-05

volFieldValue L2_error_velocity_norm write:
    sqrt(sum(region0)) of error_velocity_mag_squ = 0.00230918854773

volFieldValue error_pressure_norm write:
    max(region0) of error_pres = 0.000939401532299

Time = 0.21

Courant Number mean: 0.247591467303 max: 0.305393736992
GAMG:  Solving for p, Initial residual = 0.00476339765485, Final residual = 3.38779526276e-05, No Iterations 6
time step continuity errors : sum local = 4.38809204074e-07, global = 3.33934883711e-20, cumulative = 7.08790728679e-20
GAMG:  Solving for p, Initial residual = 0.00118266720591, Final residual = 8.340041695e-06, No Iterations 6
time step continuity errors : sum local = 2.24207194489e-07, global = -1.31050775489e-20, cumulative = 5.7773995319e-20
GAMG:  Solving for p, Initial residual = 2.55021520387e-05, Final residual = 1.42576707865e-07, No Iterations 6
time step continuity errors : sum local = 4.3692908762e-07, global = 4.62153520634e-21, cumulative = 6.23955305253e-20
ExecutionTime = 4.5 s  ClockTime = 31 s

volFieldValue error_velocity_norm write:
    max(region0) of error_velocity_mag = 2.54854835953e-05

volFieldValue L2_error_velocity_norm write:
    sqrt(sum(region0)) of error_velocity_mag_squ = 0.00230918854773

volFieldValue error_pressure_norm write:
    max(region0) of error_pres = 0.000939401532299

Time = 0.225

Courant Number mean: 0.247591400688 max: 0.305393760958
GAMG:  Solving for p, Initial residual = 0.00476339818152, Final residual = 3.38779492914e-05, No Iterations 6
time step continuity errors : sum local = 4.38809087825e-07, global = -1.44915381108e-19, cumulative = -8.25198505825e-20
GAMG:  Solving for p, Initial residual = 0.00118266698548, Final residual = 8.34004029881e-06, No Iterations 6
time step continuity errors : sum local = 2.24207125331e-07, global = -2.25155016041e-20, cumulative = -1.05035352187e-19
GAMG:  Solving for p, Initial residual = 2.55023232611e-05, Final residual = 1.42577402528e-07, No Iterations 6
time step continuity errors : sum local = 4.36928957615e-07, global = 1.00573102506e-19, cumulative = -4.46224968108e-21
ExecutionTime = 4.8 s  ClockTime = 31 s

volFieldValue error_velocity_norm write:
    max(region0) of error_velocity_mag = 2.54854835953e-05

volFieldValue L2_error_velocity_norm write:
    sqrt(sum(region0)) of error_velocity_mag_squ = 0.00230918854773

volFieldValue error_pressure_norm write:
    max(region0) of error_pres = 0.000939401532299

Time = 0.24

Courant Number mean: 0.247591334125 max: 0.305393785208
GAMG:  Solving for p, Initial residual = 0.00476339868138, Final residual = 3.38779458276e-05, No Iterations 6
time step continuity errors : sum local = 4.38808976862e-07, global = 7.63647544401e-20, cumulative = 7.1902504759e-20
GAMG:  Solving for p, Initial residual = 0.00118266672752, Final residual = 8.34003884041e-06, No Iterations 6
time step continuity errors : sum local = 2.24207057049e-07, global = -1.03447079483e-19, cumulative = -3.15445747238e-20
GAMG:  Solving for p, Initial residual = 2.55024861729e-05, Final residual = 1.42578115883e-07, No Iterations 6
time step continuity errors : sum local = 4.36928830324e-07, global = -3.63801072231e-20, cumulative = -6.79246819469e-20
ExecutionTime = 5.12 s  ClockTime = 32 s

volFieldValue error_velocity_norm write:
    max(region0) of error_velocity_mag = 2.54854835953e-05

volFieldValue L2_error_velocity_norm write:
    sqrt(sum(region0)) of error_velocity_mag_squ = 0.00230918854773

volFieldValue error_pressure_norm write:
    max(region0) of error_pres = 0.000939401532299

Time = 0.255

Courant Number mean: 0.247591267618 max: 0.305393809804
GAMG:  Solving for p, Initial residual = 0.00476339915607, Final residual = 3.38779422268e-05, No Iterations 6
time step continuity errors : sum local = 4.38808870125e-07, global = 4.12784196076e-20, cumulative = -2.66462623394e-20
GAMG:  Solving for p, Initial residual = 0.00118266643344, Final residual = 8.34003732346e-06, No Iterations 6
time step continuity errors : sum local = 2.24206989667e-07, global = 1.00396093845e-19, cumulative = 7.37498315058e-20
GAMG:  Solving for p, Initial residual = 2.55026402275e-05, Final residual = 1.42578847966e-07, No Iterations 6
time step continuity errors : sum local = 4.36928705452e-07, global = 9.89317494727e-21, cumulative = 8.36430064531e-20
ExecutionTime = 5.43 s  ClockTime = 32 s

volFieldValue error_velocity_norm write:
    max(region0) of error_velocity_mag = 2.54854835953e-05

volFieldValue L2_error_velocity_norm write:
    sqrt(sum(region0)) of error_velocity_mag_squ = 0.00230918854773

volFieldValue error_pressure_norm write:
    max(region0) of error_pres = 0.000939401532299

Time = 0.27

Courant Number mean: 0.247591201171 max: 0.305393834749
GAMG:  Solving for p, Initial residual = 0.00476339960154, Final residual = 3.38779384505e-05, No Iterations 6
time step continuity errors : sum local = 4.3880876679e-07, global = 1.93737587988e-19, cumulative = 2.77380594441e-19
GAMG:  Solving for p, Initial residual = 0.00118266610468, Final residual = 8.34003575178e-06, No Iterations 6
time step continuity errors : sum local = 2.24206923232e-07, global = 8.3451537535e-21, cumulative = 2.85725748195e-19
GAMG:  Solving for p, Initial residual = 2.5502784898e-05, Final residual = 1.4257959735e-07, No Iterations 6
time step continuity errors : sum local = 4.36928583018e-07, global = 4.0525328216e-20, cumulative = 3.26251076411e-19
ExecutionTime = 5.72 s  ClockTime = 32 s

volFieldValue error_velocity_norm write:
    max(region0) of error_velocity_mag = 2.54854835953e-05

volFieldValue L2_error_velocity_norm write:
    sqrt(sum(region0)) of error_velocity_mag_squ = 0.00230918854773

volFieldValue error_pressure_norm write:
    max(region0) of error_pres = 0.000939401532299

Time = 0.285

Courant Number mean: 0.247591134786 max: 0.305393860037
GAMG:  Solving for p, Initial residual = 0.00476340002942, Final residual = 3.38779345828e-05, No Iterations 6
time step continuity errors : sum local = 4.38808668157e-07, global = -8.17458177165e-22, cumulative = 3.25433618234e-19
GAMG:  Solving for p, Initial residual = 0.0011826657426, Final residual = 8.34003413149e-06, No Iterations 6
time step continuity errors : sum local = 2.24206857807e-07, global = -4.03257911806e-21, cumulative = 3.21401039116e-19
GAMG:  Solving for p, Initial residual = 2.55029196446e-05, Final residual = 1.42580363143e-07, No Iterations 6
time step continuity errors : sum local = 4.3692846305e-07, global = 8.18294945378e-20, cumulative = 4.03230533653e-19
ExecutionTime = 6.03 s  ClockTime = 32 s

volFieldValue error_velocity_norm write:
    max(region0) of error_velocity_mag = 2.54854835953e-05

volFieldValue L2_error_velocity_norm write:
    sqrt(sum(region0)) of error_velocity_mag_squ = 0.00230918854773

volFieldValue error_pressure_norm write:
    max(region0) of error_pres = 0.000939401532299

Time = 0.3

Courant Number mean: 0.247591068466 max: 0.305393885686
GAMG:  Solving for p, Initial residual = 0.00476340044083, Final residual = 3.38779306298e-05, No Iterations 6
time step continuity errors : sum local = 4.38808572846e-07, global = 3.48803611186e-20, cumulative = 4.38110894772e-19
GAMG:  Solving for p, Initial residual = 0.00118266534789, Final residual = 8.3400324629e-06, No Iterations 6
time step continuity errors : sum local = 2.24206793465e-07, global = -1.13420712912e-19, cumulative = 3.2469018186e-19
GAMG:  Solving for p, Initial residual = 2.55030440114e-05, Final residual = 1.42581144307e-07, No Iterations 6
time step continuity errors : sum local = 4.36928345597e-07, global = 5.94298531478e-20, cumulative = 3.84120035008e-19
ExecutionTime = 6.31 s  ClockTime = 33 s

volFieldValue error_velocity_norm write:
    max(region0) of error_velocity_mag = 2.54854835953e-05

volFieldValue L2_error_velocity_norm write:
    sqrt(sum(region0)) of error_velocity_mag_squ = 0.00230918854773

volFieldValue error_pressure_norm write:
    max(region0) of error_pres = 0.000939401532299

End

