/*---------------------------------------------------------------------------*\
| =========                 |                                                 |
| \\      /  F ield         | OpenFOAM: The Open Source CFD Toolbox           |
|  \\    /   O peration     | Version:  2406                                  |
|   \\  /    A nd           | Website:  www.openfoam.com                      |
|    \\/     M anipulation  |                                                 |
\*---------------------------------------------------------------------------*/
Build  : _630d60de3b-20240620 OPENFOAM=2406 version=v2406
Arch   : "LSB;label=32;scalar=64"
Exec   : pimpleFoam
Date   : Sep 05 2024
Time   : 21:11:19
Host   : hakan-X556UQK
PID    : 29226
I/O    : uncollated
Case   : /home/hakan/courses/testSimulation/tgv2dTests/tgv2d_temporal/pimple/pimple_nu1/TGV_temporal
nProcs : 1
trapFpe: Floating point exception trapping enabled (FOAM_SIGFPE).
fileModificationChecking : Monitoring run-time modified files using timeStampMaster (fileModificationSkew 5, maxFileModificationPolls 20)
allowSystemOperations : Allowing user-supplied system call operations

// * * * * * * * * * * * * * * * * * * * * * * * * * * * * * * * * * * * * * //
Create time

Create mesh for time = 0


PIMPLE: Operating solver in PISO mode

Reading field p

Using #codeStream at line 19 in file "0/p"
Using #codeStream with "/home/hakan/courses/testSimulation/tgv2dTests/tgv2d_temporal/pimple/pimple_nu1/TGV_temporal/dynamicCode/platforms/linux64GccDPInt32Opt/lib/libcodeStream_537564b8bd232f4ddf4797bc6f60eef024868c2e.so"
Creating new library in "dynamicCode/_537564b8bd232f4ddf4797bc6f60eef024868c2e/platforms/linux64GccDPInt32Opt/lib/libcodeStream_537564b8bd232f4ddf4797bc6f60eef024868c2e.so"
Invoking wmake libso /home/hakan/courses/testSimulation/tgv2dTests/tgv2d_temporal/pimple/pimple_nu1/TGV_temporal/dynamicCode/_537564b8bd232f4ddf4797bc6f60eef024868c2e
wmake libso /home/hakan/courses/testSimulation/tgv2dTests/tgv2d_temporal/pimple/pimple_nu1/TGV_temporal/dynamicCode/_537564b8bd232f4ddf4797bc6f60eef024868c2e
    dep: codeStreamTemplate.C
    Ctoo: codeStreamTemplate.C
    link: /home/hakan/courses/testSimulation/tgv2dTests/tgv2d_temporal/pimple/pimple_nu1/TGV_temporal/dynamicCode/_537564b8bd232f4ddf4797bc6f60eef024868c2e/../platforms/linux64GccDPInt32Opt/lib/libcodeStream_537564b8bd232f4ddf4797bc6f60eef024868c2e.so
Reading field U

Using #codeStream at line 19 in file "0/U"
Using #codeStream with "/home/hakan/courses/testSimulation/tgv2dTests/tgv2d_temporal/pimple/pimple_nu1/TGV_temporal/dynamicCode/platforms/linux64GccDPInt32Opt/lib/libcodeStream_18dd48bdf5aea29696d9cbfe8eb27bc690b7dc03.so"
Creating new library in "dynamicCode/_18dd48bdf5aea29696d9cbfe8eb27bc690b7dc03/platforms/linux64GccDPInt32Opt/lib/libcodeStream_18dd48bdf5aea29696d9cbfe8eb27bc690b7dc03.so"
Invoking wmake libso /home/hakan/courses/testSimulation/tgv2dTests/tgv2d_temporal/pimple/pimple_nu1/TGV_temporal/dynamicCode/_18dd48bdf5aea29696d9cbfe8eb27bc690b7dc03
wmake libso /home/hakan/courses/testSimulation/tgv2dTests/tgv2d_temporal/pimple/pimple_nu1/TGV_temporal/dynamicCode/_18dd48bdf5aea29696d9cbfe8eb27bc690b7dc03
    dep: codeStreamTemplate.C
    Ctoo: codeStreamTemplate.C
    link: /home/hakan/courses/testSimulation/tgv2dTests/tgv2d_temporal/pimple/pimple_nu1/TGV_temporal/dynamicCode/_18dd48bdf5aea29696d9cbfe8eb27bc690b7dc03/../platforms/linux64GccDPInt32Opt/lib/libcodeStream_18dd48bdf5aea29696d9cbfe8eb27bc690b7dc03.so
Reading/calculating face flux field phi

Selecting incompressible transport model Newtonian
Selecting turbulence model type laminar
Selecting laminar stress model Stokes
No MRF models present

No finite volume options present
Courant Number mean: 0.123796159305 max: 0.152696725009
Courant Number mean: 0.123796159305 max: 0.152696725009

Starting time loop

Using dynamicCode for functionObject diff at line 51 in "/home/hakan/courses/testSimulation/tgv2dTests/tgv2d_temporal/pimple/pimple_nu1/TGV_temporal/system/controlDict/functions/diff"
Creating new library in "dynamicCode/diff/platforms/linux64GccDPInt32Opt/lib/libdiff_d924c92ec3fe0b16fec6b8892a9fc1c20fa93dd8.so"
Invoking wmake libso /home/hakan/courses/testSimulation/tgv2dTests/tgv2d_temporal/pimple/pimple_nu1/TGV_temporal/dynamicCode/diff
wmake libso /home/hakan/courses/testSimulation/tgv2dTests/tgv2d_temporal/pimple/pimple_nu1/TGV_temporal/dynamicCode/diff
    dep: functionObjectTemplate.C
    Ctoo: functionObjectTemplate.C
    link: /home/hakan/courses/testSimulation/tgv2dTests/tgv2d_temporal/pimple/pimple_nu1/TGV_temporal/dynamicCode/diff/../platforms/linux64GccDPInt32Opt/lib/libdiff_d924c92ec3fe0b16fec6b8892a9fc1c20fa93dd8.so
Courant Number mean: 0.123796159305 max: 0.152696725009
Time = 0.0075

PIMPLE: iteration 1
DILUPBiCGStab:  Solving for Ux, Initial residual = 0.00744268521435, Final residual = 8.2479673854e-09, No Iterations 7
DILUPBiCGStab:  Solving for Uy, Initial residual = 0.00744268521435, Final residual = 8.3628434309e-09, No Iterations 7
DICPCG:  Solving for p, Initial residual = 0.103256649941, Final residual = 0.00097120862169, No Iterations 35
time step continuity errors : sum local = 6.09862713803e-09, global = 1.07286621102e-19, cumulative = 1.07286621102e-19
DICPCG:  Solving for p, Initial residual = 0.0960195680585, Final residual = 0.000932739046382, No Iterations 35
time step continuity errors : sum local = 5.75782465723e-09, global = -1.03075864161e-20, cumulative = 9.69790346861e-20
DICPCG:  Solving for p, Initial residual = 0.00158004773178, Final residual = 1.44656101252e-05, No Iterations 84
time step continuity errors : sum local = 9.67806531296e-11, global = 1.2926377021e-20, cumulative = 1.09905411707e-19
DICPCG:  Solving for p, Initial residual = 0.000375143905877, Final residual = 8.98710535309e-13, No Iterations 196
time step continuity errors : sum local = 1.06917201147e-17, global = -2.81047830332e-21, cumulative = 1.07094933404e-19
ExecutionTime = 0.71 s  ClockTime = 51 s

    Reading error_velocity_mag (volScalarField)
    Reading error_velocity_mag_squ (volScalarField)
    Reading error_pres (volScalarField)
volFieldValue error_velocity_norm write:
    max(region0) of error_velocity_mag = 0.000112902789793

volFieldValue L2_error_velocity_norm write:
    sqrt(sum(region0)) of error_velocity_mag_squ = 0.0102241813835

volFieldValue error_pressure_norm write:
    max(region0) of error_pres = 0.00760676722945

Courant Number mean: 0.121967060736 max: 0.15044062632
Time = 0.015

PIMPLE: iteration 1
DILUPBiCGStab:  Solving for Ux, Initial residual = 0.00747974717774, Final residual = 5.19260754405e-09, No Iterations 6
DILUPBiCGStab:  Solving for Uy, Initial residual = 0.00747974682434, Final residual = 5.24410649162e-09, No Iterations 6
DICPCG:  Solving for p, Initial residual = 0.152996431378, Final residual = 0.00144264940789, No Iterations 35
time step continuity errors : sum local = 8.23113445676e-09, global = -1.89369597573e-20, cumulative = 8.81579736465e-20
DICPCG:  Solving for p, Initial residual = 0.138420520282, Final residual = 0.00134434874116, No Iterations 35
time step continuity errors : sum local = 7.48170948642e-09, global = 3.38195160333e-20, cumulative = 1.2197748968e-19
DICPCG:  Solving for p, Initial residual = 0.00217882251772, Final residual = 1.91244199845e-05, No Iterations 84
time step continuity errors : sum local = 1.19706278008e-10, global = -6.47170872197e-20, cumulative = 5.72604024601e-20
DICPCG:  Solving for p, Initial residual = 0.000502698050739, Final residual = 9.49330017099e-13, No Iterations 197
time step continuity errors : sum local = 1.0587841289e-17, global = -3.90147067585e-20, cumulative = 1.82456957016e-20
ExecutionTime = 1.22 s  ClockTime = 52 s

volFieldValue error_velocity_norm write:
    max(region0) of error_velocity_mag = 0.000112902789793

volFieldValue L2_error_velocity_norm write:
    sqrt(sum(region0)) of error_velocity_mag_squ = 0.0102241813835

volFieldValue error_pressure_norm write:
    max(region0) of error_pres = 0.00760676722945

Courant Number mean: 0.120156073451 max: 0.148206866989
Time = 0.0225

PIMPLE: iteration 1
DILUPBiCGStab:  Solving for Ux, Initial residual = 0.00749236000781, Final residual = 5.19073603519e-09, No Iterations 6
DILUPBiCGStab:  Solving for Uy, Initial residual = 0.00749235960081, Final residual = 5.24152491108e-09, No Iterations 6
DICPCG:  Solving for p, Initial residual = 0.155322237916, Final residual = 0.00146555255553, No Iterations 35
time step continuity errors : sum local = 8.10019245333e-09, global = -3.52899953651e-20, cumulative = -1.70442996634e-20
DICPCG:  Solving for p, Initial residual = 0.140560491714, Final residual = 0.00136492955179, No Iterations 35
time step continuity errors : sum local = 7.35702433706e-09, global = -3.24925545189e-20, cumulative = -4.95368541823e-20
DICPCG:  Solving for p, Initial residual = 0.00220937179068, Final residual = 1.93494699203e-05, No Iterations 84
time step continuity errors : sum local = 1.17537822346e-10, global = 6.85058912804e-20, cumulative = 1.8969037098e-20
DICPCG:  Solving for p, Initial residual = 0.000509101393864, Final residual = 9.60969357109e-13, No Iterations 197
time step continuity errors : sum local = 1.0358353097e-17, global = 2.49159905962e-20, cumulative = 4.38850276942e-20
ExecutionTime = 1.79 s  ClockTime = 53 s

volFieldValue error_velocity_norm write:
    max(region0) of error_velocity_mag = 0.000112902789793

volFieldValue L2_error_velocity_norm write:
    sqrt(sum(region0)) of error_velocity_mag_squ = 0.0102241813835

volFieldValue error_pressure_norm write:
    max(region0) of error_pres = 0.00760676722945

Courant Number mean: 0.118368989444 max: 0.146002590706
Time = 0.03

PIMPLE: iteration 1
DILUPBiCGStab:  Solving for Ux, Initial residual = 0.00749665017626, Final residual = 5.18398238286e-09, No Iterations 6
DILUPBiCGStab:  Solving for Uy, Initial residual = 0.0074966497757, Final residual = 5.23393391674e-09, No Iterations 6
DICPCG:  Solving for p, Initial residual = 0.155335834667, Final residual = 0.00146564012546, No Iterations 35
time step continuity errors : sum local = 7.86115423294e-09, global = -3.3675897643e-21, cumulative = 4.05174379299e-20
DICPCG:  Solving for p, Initial residual = 0.140573166206, Final residual = 0.00136505226808, No Iterations 35
time step continuity errors : sum local = 7.14014650234e-09, global = -9.24358082117e-20, cumulative = -5.19183702817e-20
DICPCG:  Solving for p, Initial residual = 0.00220962446186, Final residual = 1.93260739741e-05, No Iterations 84
time step continuity errors : sum local = 1.13926830624e-10, global = 1.51295410297e-20, cumulative = -3.67888292521e-20
DICPCG:  Solving for p, Initial residual = 0.000509136555413, Final residual = 9.60999615347e-13, No Iterations 197
time step continuity errors : sum local = 1.0235450987e-17, global = 6.41948415392e-21, cumulative = -3.03693450981e-20
ExecutionTime = 2.49 s  ClockTime = 53 s

volFieldValue error_velocity_norm write:
    max(region0) of error_velocity_mag = 0.000112902789793

volFieldValue L2_error_velocity_norm write:
    sqrt(sum(region0)) of error_velocity_mag_squ = 0.0102241813835

volFieldValue error_pressure_norm write:
    max(region0) of error_pres = 0.00760676722945

Courant Number mean: 0.11660748328 max: 0.143829862798
Time = 0.0375

PIMPLE: iteration 1
DILUPBiCGStab:  Solving for Ux, Initial residual = 0.00749811076902, Final residual = 5.17563834111e-09, No Iterations 6
DILUPBiCGStab:  Solving for Uy, Initial residual = 0.00749811037775, Final residual = 5.22472172386e-09, No Iterations 6
DICPCG:  Solving for p, Initial residual = 0.155309624406, Final residual = 0.00146541880558, No Iterations 35
time step continuity errors : sum local = 7.62785651346e-09, global = -2.48506078981e-20, cumulative = -5.52199529962e-20
DICPCG:  Solving for p, Initial residual = 0.140549245292, Final residual = 0.00136483181334, No Iterations 35
time step continuity errors : sum local = 6.92821112959e-09, global = -4.06337585921e-20, cumulative = -9.58537115884e-20
DICPCG:  Solving for p, Initial residual = 0.0022093074879, Final residual = 1.92989292481e-05, No Iterations 84
time step continuity errors : sum local = 1.10405903266e-10, global = -1.6381796765e-20, cumulative = -1.12235508353e-19
DICPCG:  Solving for p, Initial residual = 0.000509063496702, Final residual = 9.60864309752e-13, No Iterations 197
time step continuity errors : sum local = 9.85611174721e-18, global = -4.34318340605e-21, cumulative = -1.16578691759e-19
ExecutionTime = 3.15 s  ClockTime = 54 s

volFieldValue error_velocity_norm write:
    max(region0) of error_velocity_mag = 0.000112902789793

volFieldValue L2_error_velocity_norm write:
    sqrt(sum(region0)) of error_velocity_mag_squ = 0.0102241813835

volFieldValue error_pressure_norm write:
    max(region0) of error_pres = 0.00760676722945

Courant Number mean: 0.114871854486 max: 0.141689052699
Time = 0.045

PIMPLE: iteration 1
DILUPBiCGStab:  Solving for Ux, Initial residual = 0.00749860904173, Final residual = 5.16693418681e-09, No Iterations 6
DILUPBiCGStab:  Solving for Uy, Initial residual = 0.00749860865845, Final residual = 5.21513141752e-09, No Iterations 6
DICPCG:  Solving for p, Initial residual = 0.155325766772, Final residual = 0.00146559521673, No Iterations 35
time step continuity errors : sum local = 7.40325298108e-09, global = -2.3286319005e-21, cumulative = -1.1890732366e-19
DICPCG:  Solving for p, Initial residual = 0.140564311864, Final residual = 0.00136498882028, No Iterations 35
time step continuity errors : sum local = 6.72417541394e-09, global = 4.37616952248e-20, cumulative = -7.51456284352e-20
DICPCG:  Solving for p, Initial residual = 0.00220952900379, Final residual = 1.92769726657e-05, No Iterations 84
time step continuity errors : sum local = 1.07022120954e-10, global = 3.70317266401e-20, cumulative = -3.81139017951e-20
DICPCG:  Solving for p, Initial residual = 0.000509113847578, Final residual = 9.60959452379e-13, No Iterations 197
time step continuity errors : sum local = 9.6566583983e-18, global = -7.86553577746e-21, cumulative = -4.59794375725e-20
ExecutionTime = 3.86 s  ClockTime = 55 s

volFieldValue error_velocity_norm write:
    max(region0) of error_velocity_mag = 0.000112902789793

volFieldValue L2_error_velocity_norm write:
    sqrt(sum(region0)) of error_velocity_mag_squ = 0.0102241813835

volFieldValue error_pressure_norm write:
    max(region0) of error_pres = 0.00760676722945

Courant Number mean: 0.113161945828 max: 0.139579966503
Time = 0.0525

PIMPLE: iteration 1
DILUPBiCGStab:  Solving for Ux, Initial residual = 0.00749877996722, Final residual = 5.15829271082e-09, No Iterations 6
DILUPBiCGStab:  Solving for Uy, Initial residual = 0.00749877959129, Final residual = 5.20562294689e-09, No Iterations 6
DICPCG:  Solving for p, Initial residual = 0.155336099516, Final residual = 0.00146571821265, No Iterations 35
time step continuity errors : sum local = 7.1850153308e-09, global = 3.76500312168e-20, cumulative = -8.3294063557e-21
DICPCG:  Solving for p, Initial residual = 0.14057402378, Final residual = 0.00136509323374, No Iterations 35
time step continuity errors : sum local = 6.52591467093e-09, global = 2.24816336119e-20, cumulative = 1.41522272562e-20
DICPCG:  Solving for p, Initial residual = 0.00220967884112, Final residual = 1.92547370094e-05, No Iterations 84
time step continuity errors : sum local = 1.03740220842e-10, global = -4.42782111788e-20, cumulative = -3.01259839227e-20
DICPCG:  Solving for p, Initial residual = 0.000509146331964, Final residual = 9.61020438868e-13, No Iterations 197
time step continuity errors : sum local = 9.47528421941e-18, global = -1.13806794327e-19, cumulative = -1.4393277825e-19
ExecutionTime = 4.53 s  ClockTime = 56 s

volFieldValue error_velocity_norm write:
    max(region0) of error_velocity_mag = 0.000112902789793

volFieldValue L2_error_velocity_norm write:
    sqrt(sum(region0)) of error_velocity_mag_squ = 0.0102241813835

volFieldValue error_pressure_norm write:
    max(region0) of error_pres = 0.00760676722945

Courant Number mean: 0.111477450871 max: 0.137502226285
Time = 0.06

PIMPLE: iteration 1
DILUPBiCGStab:  Solving for Ux, Initial residual = 0.0074988395035, Final residual = 5.14984322198e-09, No Iterations 6
DILUPBiCGStab:  Solving for Uy, Initial residual = 0.00749883913471, Final residual = 5.19633451285e-09, No Iterations 6
DICPCG:  Solving for p, Initial residual = 0.155339329767, Final residual = 0.0014657733694, No Iterations 35
time step continuity errors : sum local = 6.97291911631e-09, global = 1.0228945793e-19, cumulative = -4.16433203201e-20
DICPCG:  Solving for p, Initial residual = 0.140577193402, Final residual = 0.00136513388927, No Iterations 35
time step continuity errors : sum local = 6.33323654285e-09, global = 2.11681237499e-21, cumulative = -3.95265079451e-20
DICPCG:  Solving for p, Initial residual = 0.00220973798566, Final residual = 1.92321072693e-05, No Iterations 84
time step continuity errors : sum local = 1.00556698127e-10, global = 5.52403795969e-21, cumulative = -3.40024699854e-20
DICPCG:  Solving for p, Initial residual = 0.000509158062617, Final residual = 9.61041908921e-13, No Iterations 197
time step continuity errors : sum local = 9.36703018253e-18, global = 1.14077818845e-19, cumulative = 8.00753488599e-20
ExecutionTime = 5.17 s  ClockTime = 57 s

volFieldValue error_velocity_norm write:
    max(region0) of error_velocity_mag = 0.000112902789793

volFieldValue L2_error_velocity_norm write:
    sqrt(sum(region0)) of error_velocity_mag_squ = 0.0102241813835

volFieldValue error_pressure_norm write:
    max(region0) of error_pres = 0.00760676722945

Courant Number mean: 0.109818016969 max: 0.135455397127
Time = 0.0675

PIMPLE: iteration 1
DILUPBiCGStab:  Solving for Ux, Initial residual = 0.00749886109798, Final residual = 5.14163370338e-09, No Iterations 6
DILUPBiCGStab:  Solving for Uy, Initial residual = 0.00749886073612, Final residual = 5.18729996412e-09, No Iterations 6
DICPCG:  Solving for p, Initial residual = 0.15534015486, Final residual = 0.0014658051471, No Iterations 35
time step continuity errors : sum local = 6.7669865446e-09, global = 3.8255443579e-20, cumulative = 1.18330792439e-19
DICPCG:  Solving for p, Initial residual = 0.14057814795, Final residual = 0.00136515277019, No Iterations 35
time step continuity errors : sum local = 6.14616027962e-09, global = 3.08187666604e-20, cumulative = 1.49149559099e-19
DICPCG:  Solving for p, Initial residual = 0.00220976608035, Final residual = 1.92095994523e-05, No Iterations 84
time step continuity errors : sum local = 9.74713267637e-11, global = 4.25588067397e-21, cumulative = 1.53405439773e-19
DICPCG:  Solving for p, Initial residual = 0.000509162796178, Final residual = 9.61050614869e-13, No Iterations 197
time step continuity errors : sum local = 9.03818079952e-18, global = -5.48752679707e-20, cumulative = 9.85301718025e-20
ExecutionTime = 5.82 s  ClockTime = 57 s

volFieldValue error_velocity_norm write:
    max(region0) of error_velocity_mag = 0.000112902789793

volFieldValue L2_error_velocity_norm write:
    sqrt(sum(region0)) of error_velocity_mag_squ = 0.0102241813835

volFieldValue error_pressure_norm write:
    max(region0) of error_pres = 0.00760676722945

Courant Number mean: 0.108183279713 max: 0.133439029596
Time = 0.075

PIMPLE: iteration 1
DILUPBiCGStab:  Solving for Ux, Initial residual = 0.00749886973068, Final residual = 5.13368258987e-09, No Iterations 6
DILUPBiCGStab:  Solving for Uy, Initial residual = 0.00749886937556, Final residual = 5.17852926451e-09, No Iterations 6
DICPCG:  Solving for p, Initial residual = 0.155340357452, Final residual = 0.00146583037228, No Iterations 35
time step continuity errors : sum local = 6.56710923955e-09, global = 3.91373816865e-20, cumulative = 1.37667553489e-19
DICPCG:  Solving for p, Initial residual = 0.140578526804, Final residual = 0.00136516593942, No Iterations 35
time step continuity errors : sum local = 5.96458776185e-09, global = 4.80427904792e-20, cumulative = 1.85710343968e-19
DICPCG:  Solving for p, Initial residual = 0.0022097858285, Final residual = 1.91874201748e-05, No Iterations 84
time step continuity errors : sum local = 9.44820969594e-11, global = -3.60184414357e-20, cumulative = 1.49691902532e-19
DICPCG:  Solving for p, Initial residual = 0.000509165708816, Final residual = 9.61056073261e-13, No Iterations 197
time step continuity errors : sum local = 8.91983351412e-18, global = 1.3293948722e-21, cumulative = 1.51021297405e-19
ExecutionTime = 6.45 s  ClockTime = 58 s

volFieldValue error_velocity_norm write:
    max(region0) of error_velocity_mag = 0.000112902789793

volFieldValue L2_error_velocity_norm write:
    sqrt(sum(region0)) of error_velocity_mag_squ = 0.0102241813835

volFieldValue error_pressure_norm write:
    max(region0) of error_pres = 0.00760676722945

Courant Number mean: 0.106572874419 max: 0.131452673918
Time = 0.0825

PIMPLE: iteration 1
DILUPBiCGStab:  Solving for Ux, Initial residual = 0.00749887389923, Final residual = 5.12596772876e-09, No Iterations 6
DILUPBiCGStab:  Solving for Uy, Initial residual = 0.00749887355065, Final residual = 5.17002051423e-09, No Iterations 6
DICPCG:  Solving for p, Initial residual = 0.155340375861, Final residual = 0.00146585337579, No Iterations 35
time step continuity errors : sum local = 6.37312697736e-09, global = 5.42669706456e-20, cumulative = 2.0528826805e-19
DICPCG:  Solving for p, Initial residual = 0.140578734911, Final residual = 0.00136517721189, No Iterations 35
time step continuity errors : sum local = 5.78837202178e-09, global = 1.35959748622e-21, cumulative = 2.06647865536e-19
DICPCG:  Solving for p, Initial residual = 0.00220980268068, Final residual = 1.91655950029e-05, No Iterations 84
time step continuity errors : sum local = 9.1586098458e-11, global = 2.60576748813e-20, cumulative = 2.32705540418e-19
DICPCG:  Solving for p, Initial residual = 0.000509168190216, Final residual = 9.61061025225e-13, No Iterations 197
time step continuity errors : sum local = 8.66603211112e-18, global = 1.73508541342e-21, cumulative = 2.34440625831e-19
ExecutionTime = 7.12 s  ClockTime = 59 s

volFieldValue error_velocity_norm write:
    max(region0) of error_velocity_mag = 0.000112902789793

volFieldValue L2_error_velocity_norm write:
    sqrt(sum(region0)) of error_velocity_mag_squ = 0.0102241813835

volFieldValue error_pressure_norm write:
    max(region0) of error_pres = 0.00760676722945

Courant Number mean: 0.104986439917 max: 0.129495884649
Time = 0.09

PIMPLE: iteration 1
DILUPBiCGStab:  Solving for Ux, Initial residual = 0.00749887649611, Final residual = 5.11847868634e-09, No Iterations 6
DILUPBiCGStab:  Solving for Uy, Initial residual = 0.00749887615389, Final residual = 5.1617597124e-09, No Iterations 6
DICPCG:  Solving for p, Initial residual = 0.155340326649, Final residual = 0.00146587536843, No Iterations 35
time step continuity errors : sum local = 6.1848707635e-09, global = -2.34738752695e-20, cumulative = 2.10966750562e-19
DICPCG:  Solving for p, Initial residual = 0.140578880417, Final residual = 0.0013651875167, No Iterations 35
time step continuity errors : sum local = 5.61735860636e-09, global = 4.66168021736e-20, cumulative = 2.57583552735e-19
DICPCG:  Solving for p, Initial residual = 0.00220981807267, Final residual = 1.91441501816e-05, No Iterations 84
time step continuity errors : sum local = 8.87805057931e-11, global = 5.94011173302e-20, cumulative = 3.16984670066e-19
DICPCG:  Solving for p, Initial residual = 0.000509170374167, Final residual = 9.61066283119e-13, No Iterations 197
time step continuity errors : sum local = 8.49771096725e-18, global = 2.06661789164e-20, cumulative = 3.37650848982e-19
ExecutionTime = 7.76 s  ClockTime = 60 s

volFieldValue error_velocity_norm write:
    max(region0) of error_velocity_mag = 0.000112902789793

volFieldValue L2_error_velocity_norm write:
    sqrt(sum(region0)) of error_velocity_mag_squ = 0.0102241813835

volFieldValue error_pressure_norm write:
    max(region0) of error_pres = 0.00760676722945

Courant Number mean: 0.103423619768 max: 0.127568222182
Time = 0.0975

PIMPLE: iteration 1
DILUPBiCGStab:  Solving for Ux, Initial residual = 0.00749887850753, Final residual = 5.11123156788e-09, No Iterations 6
DILUPBiCGStab:  Solving for Uy, Initial residual = 0.00749887817149, Final residual = 5.15374401642e-09, No Iterations 6
DICPCG:  Solving for p, Initial residual = 0.155340251523, Final residual = 0.00146589668243, No Iterations 35
time step continuity errors : sum local = 6.00217297186e-09, global = -6.06191803714e-21, cumulative = 3.31588930945e-19
DICPCG:  Solving for p, Initial residual = 0.140578999766, Final residual = 0.00136519715489, No Iterations 35
time step continuity errors : sum local = 5.45139509816e-09, global = -2.04685121056e-20, cumulative = 3.11120418839e-19
DICPCG:  Solving for p, Initial residual = 0.00220983264805, Final residual = 1.91230902021e-05, No Iterations 84
time step continuity errors : sum local = 8.60624725913e-11, global = 8.16152632222e-21, cumulative = 3.19281945161e-19
DICPCG:  Solving for p, Initial residual = 0.000509172380484, Final residual = 9.61073322117e-13, No Iterations 197
time step continuity errors : sum local = 8.17191536993e-18, global = 5.52575972376e-20, cumulative = 3.74539542399e-19
ExecutionTime = 8.43 s  ClockTime = 61 s

volFieldValue error_velocity_norm write:
    max(region0) of error_velocity_mag = 0.000112902789793

volFieldValue L2_error_velocity_norm write:
    sqrt(sum(region0)) of error_velocity_mag_squ = 0.0102241813835

volFieldValue error_pressure_norm write:
    max(region0) of error_pres = 0.00760676722945

Courant Number mean: 0.101884062626 max: 0.125669253181
Time = 0.105

PIMPLE: iteration 1
DILUPBiCGStab:  Solving for Ux, Initial residual = 0.00749888027129, Final residual = 5.10420721941e-09, No Iterations 6
DILUPBiCGStab:  Solving for Uy, Initial residual = 0.00749887994129, Final residual = 5.14598121875e-09, No Iterations 6
DICPCG:  Solving for p, Initial residual = 0.155340166999, Final residual = 0.0014659172492, No Iterations 35
time step continuity errors : sum local = 5.8248692874e-09, global = 1.60292027893e-20, cumulative = 3.90568745188e-19
DICPCG:  Solving for p, Initial residual = 0.140579108342, Final residual = 0.00136520632279, No Iterations 35
time step continuity errors : sum local = 5.29033314689e-09, global = -1.43383175034e-20, cumulative = 3.76230427685e-19
DICPCG:  Solving for p, Initial residual = 0.0022098464713, Final residual = 1.9102421161e-05, No Iterations 84
time step continuity errors : sum local = 8.34292489718e-11, global = 6.46594769037e-21, cumulative = 3.82696375375e-19
DICPCG:  Solving for p, Initial residual = 0.000509174241593, Final residual = 9.61083716878e-13, No Iterations 197
time step continuity errors : sum local = 7.72298461991e-18, global = 6.775759204e-20, cumulative = 4.50453967415e-19
ExecutionTime = 9.1 s  ClockTime = 61 s

volFieldValue error_velocity_norm write:
    max(region0) of error_velocity_mag = 0.000112902789793

volFieldValue L2_error_velocity_norm write:
    sqrt(sum(region0)) of error_velocity_mag_squ = 0.0102241813835

volFieldValue error_pressure_norm write:
    max(region0) of error_pres = 0.00760676722945

Courant Number mean: 0.100367422295 max: 0.123798550667
Time = 0.1125

PIMPLE: iteration 1
DILUPBiCGStab:  Solving for Ux, Initial residual = 0.00749888190461, Final residual = 5.09739113623e-09, No Iterations 6
DILUPBiCGStab:  Solving for Uy, Initial residual = 0.00749888158048, Final residual = 5.13844759568e-09, No Iterations 6
DICPCG:  Solving for p, Initial residual = 0.155340078618, Final residual = 0.00146593729362, No Iterations 35
time step continuity errors : sum local = 5.6528012976e-09, global = -2.90197150028e-20, cumulative = 4.21434252412e-19
DICPCG:  Solving for p, Initial residual = 0.140579210069, Final residual = 0.0013652151255, No Iterations 35
time step continuity errors : sum local = 5.13402842203e-09, global = -8.20723031505e-21, cumulative = 4.13227022097e-19
DICPCG:  Solving for p, Initial residual = 0.00220986013832, Final residual = 1.90821250746e-05, No Iterations 84
time step continuity errors : sum local = 8.08780716707e-11, global = -2.94462569236e-20, cumulative = 3.83780765174e-19
DICPCG:  Solving for p, Initial residual = 0.000509176068985, Final residual = 9.61095780896e-13, No Iterations 197
time step continuity errors : sum local = 7.42717621272e-18, global = 4.62681619028e-20, cumulative = 4.30048927077e-19
ExecutionTime = 9.76 s  ClockTime = 62 s

volFieldValue error_velocity_norm write:
    max(region0) of error_velocity_mag = 0.000112902789793

volFieldValue L2_error_velocity_norm write:
    sqrt(sum(region0)) of error_velocity_mag_squ = 0.0102241813835

volFieldValue error_pressure_norm write:
    max(region0) of error_pres = 0.00760676722945

Courant Number mean: 0.0988733577079 max: 0.121955693978
Time = 0.12

PIMPLE: iteration 1
DILUPBiCGStab:  Solving for Ux, Initial residual = 0.00749888344952, Final residual = 5.09077838615e-09, No Iterations 6
DILUPBiCGStab:  Solving for Uy, Initial residual = 0.00749888313112, Final residual = 5.13114087537e-09, No Iterations 6
DICPCG:  Solving for p, Initial residual = 0.155339987446, Final residual = 0.00146595691367, No Iterations 35
time step continuity errors : sum local = 5.48581482216e-09, global = 1.72263244284e-20, cumulative = 4.47275251505e-19
DICPCG:  Solving for p, Initial residual = 0.140579306893, Final residual = 0.00136522344831, No Iterations 35
time step continuity errors : sum local = 4.98234004557e-09, global = 1.28247048824e-21, cumulative = 4.48557721993e-19
DICPCG:  Solving for p, Initial residual = 0.00220987340919, Final residual = 1.90622346577e-05, No Iterations 84
time step continuity errors : sum local = 7.840647895e-11, global = 6.0506004202e-21, cumulative = 4.54608322414e-19
DICPCG:  Solving for p, Initial residual = 0.000509177858076, Final residual = 9.61107602366e-13, No Iterations 197
time step continuity errors : sum local = 7.23009206903e-18, global = 3.74180623469e-20, cumulative = 4.9202638476e-19
ExecutionTime = 10.41 s  ClockTime = 63 s

volFieldValue error_velocity_norm write:
    max(region0) of error_velocity_mag = 0.000112902789793

volFieldValue L2_error_velocity_norm write:
    sqrt(sum(region0)) of error_velocity_mag_squ = 0.0102241813835

volFieldValue error_pressure_norm write:
    max(region0) of error_pres = 0.00760676722945

Courant Number mean: 0.0974015328628 max: 0.120140268702
Time = 0.1275

PIMPLE: iteration 1
DILUPBiCGStab:  Solving for Ux, Initial residual = 0.0074988849224, Final residual = 5.08437167781e-09, No Iterations 6
DILUPBiCGStab:  Solving for Uy, Initial residual = 0.0074988846096, Final residual = 5.1240456821e-09, No Iterations 6
DICPCG:  Solving for p, Initial residual = 0.155339894241, Final residual = 0.00146597598537, No Iterations 35
time step continuity errors : sum local = 5.32375939338e-09, global = 2.68731078462e-20, cumulative = 5.18899492607e-19
DICPCG:  Solving for p, Initial residual = 0.140579398582, Final residual = 0.00136523140046, No Iterations 35
time step continuity errors : sum local = 4.83513211491e-09, global = 1.10326053405e-20, cumulative = 5.29932097947e-19
DICPCG:  Solving for p, Initial residual = 0.00220988646824, Final residual = 1.90427503821e-05, No Iterations 84
time step continuity errors : sum local = 7.60119480408e-11, global = 8.62973477577e-21, cumulative = 5.38561832723e-19
DICPCG:  Solving for p, Initial residual = 0.000509179567901, Final residual = 9.61118766983e-13, No Iterations 197
time step continuity errors : sum local = 7.03586717594e-18, global = 3.96003715231e-21, cumulative = 5.42521869875e-19
ExecutionTime = 11.07 s  ClockTime = 64 s

volFieldValue error_velocity_norm write:
    max(region0) of error_velocity_mag = 0.000112902789793

volFieldValue L2_error_velocity_norm write:
    sqrt(sum(region0)) of error_velocity_mag_squ = 0.0102241813835

volFieldValue error_pressure_norm write:
    max(region0) of error_pres = 0.00760676722945

Courant Number mean: 0.0959516167537 max: 0.118351866583
Time = 0.135

PIMPLE: iteration 1
DILUPBiCGStab:  Solving for Ux, Initial residual = 0.00749888633082, Final residual = 5.07816899192e-09, No Iterations 6
DILUPBiCGStab:  Solving for Uy, Initial residual = 0.00749888602347, Final residual = 5.11716024242e-09, No Iterations 6
DICPCG:  Solving for p, Initial residual = 0.155339799346, Final residual = 0.001465994439, No Iterations 35
time step continuity errors : sum local = 5.16648921312e-09, global = -4.14598409128e-20, cumulative = 5.01062028962e-19
DICPCG:  Solving for p, Initial residual = 0.140579487004, Final residual = 0.00136523891297, No Iterations 35
time step continuity errors : sum local = 4.69227208382e-09, global = 3.37679346034e-20, cumulative = 5.34829963566e-19
DICPCG:  Solving for p, Initial residual = 0.00220989899034, Final residual = 1.90236465581e-05, No Iterations 84
time step continuity errors : sum local = 7.36919361132e-11, global = 1.54018289545e-20, cumulative = 5.5023179252e-19
DICPCG:  Solving for p, Initial residual = 0.00050918120286, Final residual = 9.61129282164e-13, No Iterations 197
time step continuity errors : sum local = 6.96725064223e-18, global = 1.92828165751e-20, cumulative = 5.69514609095e-19
ExecutionTime = 11.72 s  ClockTime = 64 s

volFieldValue error_velocity_norm write:
    max(region0) of error_velocity_mag = 0.000112902789793

volFieldValue L2_error_velocity_norm write:
    sqrt(sum(region0)) of error_velocity_mag_squ = 0.0102241813835

volFieldValue error_pressure_norm write:
    max(region0) of error_pres = 0.00760676722945

Courant Number mean: 0.0945232832983 max: 0.116590085439
Time = 0.1425

PIMPLE: iteration 1
DILUPBiCGStab:  Solving for Ux, Initial residual = 0.0074988876792, Final residual = 5.07217861846e-09, No Iterations 6
DILUPBiCGStab:  Solving for Uy, Initial residual = 0.0074988873772, Final residual = 5.11048498785e-09, No Iterations 6
DICPCG:  Solving for p, Initial residual = 0.155339702964, Final residual = 0.00146601253591, No Iterations 35
time step continuity errors : sum local = 5.0138639148e-09, global = -1.82478580022e-20, cumulative = 5.51266751093e-19
DICPCG:  Solving for p, Initial residual = 0.140579571993, Final residual = 0.00136524624868, No Iterations 35
time step continuity errors : sum local = 4.55363244813e-09, global = 1.23048802304e-20, cumulative = 5.63571631324e-19
DICPCG:  Solving for p, Initial residual = 0.0022099112027, Final residual = 1.90049290752e-05, No Iterations 84
time step continuity errors : sum local = 7.14441085201e-11, global = 2.42512424937e-20, cumulative = 5.87822873817e-19
DICPCG:  Solving for p, Initial residual = 0.000509182809565, Final residual = 9.61140164588e-13, No Iterations 197
time step continuity errors : sum local = 6.8002359582e-18, global = 3.26765009862e-20, cumulative = 6.20499374803e-19
ExecutionTime = 12.37 s  ClockTime = 65 s

volFieldValue error_velocity_norm write:
    max(region0) of error_velocity_mag = 0.000112902789793

volFieldValue L2_error_velocity_norm write:
    sqrt(sum(region0)) of error_velocity_mag_squ = 0.0102241813835

volFieldValue error_pressure_norm write:
    max(region0) of error_pres = 0.00760676722945

Courant Number mean: 0.0931162112655 max: 0.114854529067
Time = 0.15

PIMPLE: iteration 1
DILUPBiCGStab:  Solving for Ux, Initial residual = 0.00749888897086, Final residual = 5.06638535219e-09, No Iterations 6
DILUPBiCGStab:  Solving for Uy, Initial residual = 0.00749888867406, Final residual = 5.10401622824e-09, No Iterations 6
DICPCG:  Solving for p, Initial residual = 0.155339605243, Final residual = 0.00146603086129, No Iterations 35
time step continuity errors : sum local = 4.86574824718e-09, global = 4.82855110904e-20, cumulative = 6.68784885894e-19
DICPCG:  Solving for p, Initial residual = 0.140579656295, Final residual = 0.00136525305178, No Iterations 35
time step continuity errors : sum local = 4.41908742053e-09, global = 5.53591442522e-21, cumulative = 6.74320800319e-19
DICPCG:  Solving for p, Initial residual = 0.00220992318166, Final residual = 1.89865660176e-05, No Iterations 84
time step continuity errors : sum local = 6.926606639e-11, global = -1.26112164719e-20, cumulative = 6.61709583847e-19
DICPCG:  Solving for p, Initial residual = 0.000509184361888, Final residual = 9.61150883041e-13, No Iterations 197
time step continuity errors : sum local = 6.77867548553e-18, global = -2.80052158006e-20, cumulative = 6.33704368047e-19
ExecutionTime = 13.04 s  ClockTime = 66 s

volFieldValue error_velocity_norm write:
    max(region0) of error_velocity_mag = 0.000112902789793

volFieldValue L2_error_velocity_norm write:
    sqrt(sum(region0)) of error_velocity_mag_squ = 0.0102241813835

volFieldValue error_pressure_norm write:
    max(region0) of error_pres = 0.00760676722945

Courant Number mean: 0.0917300842032 max: 0.113144807159
Time = 0.1575

PIMPLE: iteration 1
DILUPBiCGStab:  Solving for Ux, Initial residual = 0.00749889020859, Final residual = 5.06076362372e-09, No Iterations 6
DILUPBiCGStab:  Solving for Uy, Initial residual = 0.00749888991689, Final residual = 5.09774111051e-09, No Iterations 6
DICPCG:  Solving for p, Initial residual = 0.155339506313, Final residual = 0.00146604875365, No Iterations 35
time step continuity errors : sum local = 4.72200685485e-09, global = 1.7103084663e-21, cumulative = 6.35414676513e-19
DICPCG:  Solving for p, Initial residual = 0.140579737664, Final residual = 0.00136525967437, No Iterations 35
time step continuity errors : sum local = 4.28851720748e-09, global = -4.14656552953e-20, cumulative = 5.93949021218e-19
DICPCG:  Solving for p, Initial residual = 0.00220993495666, Final residual = 1.89687031545e-05, No Iterations 84
time step continuity errors : sum local = 6.71561253921e-11, global = 3.23632695635e-20, cumulative = 6.26312290781e-19
DICPCG:  Solving for p, Initial residual = 0.000509185875259, Final residual = 9.61161017935e-13, No Iterations 197
time step continuity errors : sum local = 6.69351175371e-18, global = 4.45508415733e-20, cumulative = 6.70863132354e-19
ExecutionTime = 13.75 s  ClockTime = 67 s

volFieldValue error_velocity_norm write:
    max(region0) of error_velocity_mag = 0.000112902789793

volFieldValue L2_error_velocity_norm write:
    sqrt(sum(region0)) of error_velocity_mag_squ = 0.0102241813835

volFieldValue error_pressure_norm write:
    max(region0) of error_pres = 0.00760676722945

Courant Number mean: 0.0903645903678 max: 0.111460535211
Time = 0.165

PIMPLE: iteration 1
DILUPBiCGStab:  Solving for Ux, Initial residual = 0.00749889139497, Final residual = 5.05530914795e-09, No Iterations 6
DILUPBiCGStab:  Solving for Uy, Initial residual = 0.00749889110825, Final residual = 5.09164445351e-09, No Iterations 6
DICPCG:  Solving for p, Initial residual = 0.15533940625, Final residual = 0.00146606587487, No Iterations 35
time step continuity errors : sum local = 4.58250955726e-09, global = -6.25647670394e-21, cumulative = 6.6460665565e-19
DICPCG:  Solving for p, Initial residual = 0.140579816398, Final residual = 0.00136526598181, No Iterations 35
time step continuity errors : sum local = 4.16180399433e-09, global = 1.06562482193e-20, cumulative = 6.7526290387e-19
DICPCG:  Solving for p, Initial residual = 0.00220994633911, Final residual = 1.89510571222e-05, No Iterations 84
time step continuity errors : sum local = 6.51111393598e-11, global = 1.16750364616e-20, cumulative = 6.86937940331e-19
DICPCG:  Solving for p, Initial residual = 0.000509187245712, Final residual = 9.61170910327e-13, No Iterations 197
time step continuity errors : sum local = 6.62184464172e-18, global = -2.38894408123e-21, cumulative = 6.8454899625e-19
ExecutionTime = 14.48 s  ClockTime = 67 s

volFieldValue error_velocity_norm write:
    max(region0) of error_velocity_mag = 0.000112902789793

volFieldValue L2_error_velocity_norm write:
    sqrt(sum(region0)) of error_velocity_mag_squ = 0.0102241813835

volFieldValue error_pressure_norm write:
    max(region0) of error_pres = 0.00760676722945

Courant Number mean: 0.0890194226538 max: 0.10980133444
Time = 0.1725

PIMPLE: iteration 1
DILUPBiCGStab:  Solving for Ux, Initial residual = 0.00749889253238, Final residual = 5.05001399859e-09, No Iterations 6
DILUPBiCGStab:  Solving for Uy, Initial residual = 0.00749889225054, Final residual = 5.08571970009e-09, No Iterations 6
DICPCG:  Solving for p, Initial residual = 0.155339305174, Final residual = 0.00146608310363, No Iterations 35
time step continuity errors : sum local = 4.44713371953e-09, global = 1.58515781187e-20, cumulative = 7.00400574369e-19
DICPCG:  Solving for p, Initial residual = 0.140579894312, Final residual = 0.0013652720178, No Iterations 35
time step continuity errors : sum local = 4.03883400386e-09, global = -1.00081174318e-20, cumulative = 6.90392456937e-19
DICPCG:  Solving for p, Initial residual = 0.00220995770608, Final residual = 1.89338591308e-05, No Iterations 84
time step continuity errors : sum local = 6.31298585119e-11, global = 1.81184272944e-20, cumulative = 7.08510884231e-19
DICPCG:  Solving for p, Initial residual = 0.000509188593521, Final residual = 9.61181339261e-13, No Iterations 197
time step continuity errors : sum local = 6.56290012401e-18, global = -5.18218019645e-21, cumulative = 7.03328704035e-19
ExecutionTime = 15.12 s  ClockTime = 68 s

volFieldValue error_velocity_norm write:
    max(region0) of error_velocity_mag = 0.000112902789793

volFieldValue L2_error_velocity_norm write:
    sqrt(sum(region0)) of error_velocity_mag_squ = 0.0102241813835

volFieldValue error_pressure_norm write:
    max(region0) of error_pres = 0.00760676722945

Courant Number mean: 0.0876942785254 max: 0.108166831696
Time = 0.18

PIMPLE: iteration 1
DILUPBiCGStab:  Solving for Ux, Initial residual = 0.0074988936231, Final residual = 5.04488061721e-09, No Iterations 6
DILUPBiCGStab:  Solving for Uy, Initial residual = 0.00749889334603, Final residual = 5.07996544058e-09, No Iterations 6
DICPCG:  Solving for p, Initial residual = 0.155339203635, Final residual = 0.00146609972537, No Iterations 35
time step continuity errors : sum local = 4.31575547713e-09, global = 2.01603184046e-20, cumulative = 7.2348902244e-19
DICPCG:  Solving for p, Initial residual = 0.14057997099, Final residual = 0.00136527775636, No Iterations 35
time step continuity errors : sum local = 3.9194965917e-09, global = -1.04239369241e-20, cumulative = 7.13065085515e-19
DICPCG:  Solving for p, Initial residual = 0.00220996881432, Final residual = 1.89170232625e-05, No Iterations 84
time step continuity errors : sum local = 6.12099835796e-11, global = -1.81988494365e-20, cumulative = 6.94866236079e-19
DICPCG:  Solving for p, Initial residual = 0.000509189901934, Final residual = 9.61191506013e-13, No Iterations 197
time step continuity errors : sum local = 6.36530730234e-18, global = -4.58888988227e-20, cumulative = 6.48977337256e-19
ExecutionTime = 15.76 s  ClockTime = 69 s

volFieldValue error_velocity_norm write:
    max(region0) of error_velocity_mag = 0.000112902789793

volFieldValue L2_error_velocity_norm write:
    sqrt(sum(region0)) of error_velocity_mag_squ = 0.0102241813835

volFieldValue error_pressure_norm write:
    max(region0) of error_pres = 0.00760676722945

Courant Number mean: 0.086388859948 max: 0.106556659383
Time = 0.1875

PIMPLE: iteration 1
DILUPBiCGStab:  Solving for Ux, Initial residual = 0.00749889466927, Final residual = 5.03991448433e-09, No Iterations 6
DILUPBiCGStab:  Solving for Uy, Initial residual = 0.00749889439687, Final residual = 5.07439214718e-09, No Iterations 6
DICPCG:  Solving for p, Initial residual = 0.155339101438, Final residual = 0.00146611671559, No Iterations 35
time step continuity errors : sum local = 4.18825947615e-09, global = 3.10053046223e-21, cumulative = 6.52077867718e-19
DICPCG:  Solving for p, Initial residual = 0.140580046197, Final residual = 0.00136528338459, No Iterations 35
time step continuity errors : sum local = 3.80368496698e-09, global = 1.84643918919e-20, cumulative = 6.7054225961e-19
DICPCG:  Solving for p, Initial residual = 0.00220997951078, Final residual = 1.89005618942e-05, No Iterations 84
time step continuity errors : sum local = 5.93496198232e-11, global = -2.88151455801e-20, cumulative = 6.4172711403e-19
DICPCG:  Solving for p, Initial residual = 0.000509191124148, Final residual = 9.61201128636e-13, No Iterations 197
time step continuity errors : sum local = 6.27411215045e-18, global = 1.35749958587e-20, cumulative = 6.55302109889e-19
ExecutionTime = 16.41 s  ClockTime = 70 s

volFieldValue error_velocity_norm write:
    max(region0) of error_velocity_mag = 0.000112902789793

volFieldValue L2_error_velocity_norm write:
    sqrt(sum(region0)) of error_velocity_mag_squ = 0.0102241813835

volFieldValue error_pressure_norm write:
    max(region0) of error_pres = 0.00760676722945

Courant Number mean: 0.0851028733219 max: 0.10497045537
Time = 0.195

PIMPLE: iteration 1
DILUPBiCGStab:  Solving for Ux, Initial residual = 0.00749889567292, Final residual = 5.03509214177e-09, No Iterations 6
DILUPBiCGStab:  Solving for Uy, Initial residual = 0.00749889540509, Final residual = 5.06898761538e-09, No Iterations 6
DICPCG:  Solving for p, Initial residual = 0.155338998532, Final residual = 0.00146613203223, No Iterations 35
time step continuity errors : sum local = 4.0645256986e-09, global = 1.39479052912e-20, cumulative = 6.6925001518e-19
DICPCG:  Solving for p, Initial residual = 0.140580118846, Final residual = 0.00136528835734, No Iterations 35
time step continuity errors : sum local = 3.69129361727e-09, global = 7.66834454586e-20, cumulative = 7.45933460639e-19
DICPCG:  Solving for p, Initial residual = 0.00220998965374, Final residual = 1.88844624261e-05, No Iterations 84
time step continuity errors : sum local = 5.75468525285e-11, global = 2.71544499039e-20, cumulative = 7.73087910543e-19
DICPCG:  Solving for p, Initial residual = 0.000509192376197, Final residual = 9.6121030846e-13, No Iterations 197
time step continuity errors : sum local = 6.21291778712e-18, global = 5.77137127168e-20, cumulative = 8.30801623259e-19
ExecutionTime = 17.08 s  ClockTime = 70 s

volFieldValue error_velocity_norm write:
    max(region0) of error_velocity_mag = 0.000112902789793

volFieldValue L2_error_velocity_norm write:
    sqrt(sum(region0)) of error_velocity_mag_squ = 0.0102241813835

volFieldValue error_pressure_norm write:
    max(region0) of error_pres = 0.00760676722945

Courant Number mean: 0.0838360294158 max: 0.103407862916
Time = 0.2025

PIMPLE: iteration 1
DILUPBiCGStab:  Solving for Ux, Initial residual = 0.00749889663599, Final residual = 5.03041321598e-09, No Iterations 6
DILUPBiCGStab:  Solving for Uy, Initial residual = 0.00749889637263, Final residual = 5.06373865458e-09, No Iterations 6
DICPCG:  Solving for p, Initial residual = 0.155338895116, Final residual = 0.00146614740191, No Iterations 35
time step continuity errors : sum local = 3.94444758937e-09, global = 1.18846858082e-20, cumulative = 8.42686309068e-19
DICPCG:  Solving for p, Initial residual = 0.140580189287, Final residual = 0.00136529329554, No Iterations 35
time step continuity errors : sum local = 3.58222311484e-09, global = -3.04336722509e-21, cumulative = 8.39642941842e-19
DICPCG:  Solving for p, Initial residual = 0.00220999940219, Final residual = 1.88687256263e-05, No Iterations 84
time step continuity errors : sum local = 5.57998723856e-11, global = 4.83351521666e-20, cumulative = 8.87978094009e-19
DICPCG:  Solving for p, Initial residual = 0.000509193576513, Final residual = 9.61219403303e-13, No Iterations 197
time step continuity errors : sum local = 6.1159105281e-18, global = -8.1631244042e-21, cumulative = 8.79814969605e-19
ExecutionTime = 17.73 s  ClockTime = 71 s

volFieldValue error_velocity_norm write:
    max(region0) of error_velocity_mag = 0.000112902789793

volFieldValue L2_error_velocity_norm write:
    sqrt(sum(region0)) of error_velocity_mag_squ = 0.0102241813835

volFieldValue error_pressure_norm write:
    max(region0) of error_pres = 0.00760676722945

Courant Number mean: 0.0825880433024 max: 0.101868530587
Time = 0.21

PIMPLE: iteration 1
DILUPBiCGStab:  Solving for Ux, Initial residual = 0.0074988975603, Final residual = 5.02587493323e-09, No Iterations 6
DILUPBiCGStab:  Solving for Uy, Initial residual = 0.00749889730133, Final residual = 5.05864724812e-09, No Iterations 6
DICPCG:  Solving for p, Initial residual = 0.155338791019, Final residual = 0.00146616208736, No Iterations 35
time step continuity errors : sum local = 3.82791530121e-09, global = 2.83480123945e-20, cumulative = 9.08162981999e-19
DICPCG:  Solving for p, Initial residual = 0.140580258778, Final residual = 0.00136529815504, No Iterations 35
time step continuity errors : sum local = 3.4763752444e-09, global = 2.30098686895e-21, cumulative = 9.10463968868e-19
DICPCG:  Solving for p, Initial residual = 0.00221000896147, Final residual = 1.88533496702e-05, No Iterations 84
time step continuity errors : sum local = 5.41069205286e-11, global = 1.44428828867e-20, cumulative = 9.24906851755e-19
DICPCG:  Solving for p, Initial residual = 0.000509194657317, Final residual = 9.61228382351e-13, No Iterations 197
time step continuity errors : sum local = 5.93159957816e-18, global = 2.04879026675e-20, cumulative = 9.45394754423e-19
ExecutionTime = 18.37 s  ClockTime = 72 s

volFieldValue error_velocity_norm write:
    max(region0) of error_velocity_mag = 0.000112902789793

volFieldValue L2_error_velocity_norm write:
    sqrt(sum(region0)) of error_velocity_mag_squ = 0.0102241813835

volFieldValue error_pressure_norm write:
    max(region0) of error_pres = 0.00760676722945

Courant Number mean: 0.0813586342941 max: 0.100352112177
Time = 0.2175

PIMPLE: iteration 1
DILUPBiCGStab:  Solving for Ux, Initial residual = 0.00749889844762, Final residual = 5.02148479445e-09, No Iterations 6
DILUPBiCGStab:  Solving for Uy, Initial residual = 0.00749889819294, Final residual = 5.0537096709e-09, No Iterations 6
DICPCG:  Solving for p, Initial residual = 0.155338686518, Final residual = 0.00146617668417, No Iterations 35
time step continuity errors : sum local = 3.71482564358e-09, global = 2.02683464883e-20, cumulative = 9.65663100911e-19
DICPCG:  Solving for p, Initial residual = 0.140580326128, Final residual = 0.00136530262033, No Iterations 35
time step continuity errors : sum local = 3.37365403726e-09, global = -8.12812956993e-22, cumulative = 9.64850287954e-19
DICPCG:  Solving for p, Initial residual = 0.00221001811942, Final residual = 1.88383062295e-05, No Iterations 84
time step continuity errors : sum local = 5.24662199666e-11, global = 3.01470876239e-20, cumulative = 9.94997375578e-19
DICPCG:  Solving for p, Initial residual = 0.0005091956575, Final residual = 9.61238116799e-13, No Iterations 197
time step continuity errors : sum local = 5.97972701329e-18, global = -1.07368648933e-20, cumulative = 9.84260510684e-19
ExecutionTime = 19.03 s  ClockTime = 73 s

volFieldValue error_velocity_norm write:
    max(region0) of error_velocity_mag = 0.000112902789793

volFieldValue L2_error_velocity_norm write:
    sqrt(sum(region0)) of error_velocity_mag_squ = 0.0102241813835

volFieldValue error_pressure_norm write:
    max(region0) of error_pres = 0.00760676722945

Courant Number mean: 0.08014752588 max: 0.0988582666316
Time = 0.225

PIMPLE: iteration 1
DILUPBiCGStab:  Solving for Ux, Initial residual = 0.00749889929959, Final residual = 5.017231023e-09, No Iterations 6
DILUPBiCGStab:  Solving for Uy, Initial residual = 0.00749889904912, Final residual = 5.04891912287e-09, No Iterations 6
DICPCG:  Solving for p, Initial residual = 0.155338581653, Final residual = 0.00146619061143, No Iterations 35
time step continuity errors : sum local = 3.60507552139e-09, global = 3.27269967066e-20, cumulative = 1.01698750739e-18
DICPCG:  Solving for p, Initial residual = 0.140580392099, Final residual = 0.0013653070967, No Iterations 35
time step continuity errors : sum local = 3.27396810663e-09, global = -2.05049949985e-20, cumulative = 9.96482512393e-19
DICPCG:  Solving for p, Initial residual = 0.00221002700643, Final residual = 1.88235974729e-05, No Iterations 84
time step continuity errors : sum local = 5.08761397345e-11, global = 3.21555713744e-20, cumulative = 1.02863808377e-18
DICPCG:  Solving for p, Initial residual = 0.000509196564802, Final residual = 9.61248203919e-13, No Iterations 197
time step continuity errors : sum local = 5.94313056556e-18, global = 1.6382505132e-21, cumulative = 1.03027633428e-18
ExecutionTime = 19.67 s  ClockTime = 74 s

volFieldValue error_velocity_norm write:
    max(region0) of error_velocity_mag = 0.000112902789793

volFieldValue L2_error_velocity_norm write:
    sqrt(sum(region0)) of error_velocity_mag_squ = 0.0102241813835

volFieldValue error_pressure_norm write:
    max(region0) of error_pres = 0.00760676722945

Courant Number mean: 0.0789544456639 max: 0.0973866579698
Time = 0.2325

PIMPLE: iteration 1
DILUPBiCGStab:  Solving for Ux, Initial residual = 0.00749890011779, Final residual = 5.01310726282e-09, No Iterations 6
DILUPBiCGStab:  Solving for Uy, Initial residual = 0.00749889987144, Final residual = 5.04426197058e-09, No Iterations 6
DICPCG:  Solving for p, Initial residual = 0.155338477603, Final residual = 0.00146620424628, No Iterations 35
time step continuity errors : sum local = 3.49856724198e-09, global = 1.54895338071e-20, cumulative = 1.04576586809e-18
DICPCG:  Solving for p, Initial residual = 0.140580457165, Final residual = 0.00136531127859, No Iterations 35
time step continuity errors : sum local = 3.17722707401e-09, global = -5.12385385262e-21, cumulative = 1.04064201423e-18
DICPCG:  Solving for p, Initial residual = 0.00221003568768, Final residual = 1.88092138239e-05, No Iterations 84
time step continuity errors : sum local = 4.93350690676e-11, global = 4.56508383819e-22, cumulative = 1.04109852262e-18
DICPCG:  Solving for p, Initial residual = 0.000509197486454, Final residual = 9.61258390227e-13, No Iterations 197
time step continuity errors : sum local = 5.84607259087e-18, global = 7.8953790317e-21, cumulative = 1.04899390165e-18
ExecutionTime = 20.31 s  ClockTime = 74 s

volFieldValue error_velocity_norm write:
    max(region0) of error_velocity_mag = 0.000112902789793

volFieldValue L2_error_velocity_norm write:
    sqrt(sum(region0)) of error_velocity_mag_squ = 0.0102241813835

volFieldValue error_pressure_norm write:
    max(region0) of error_pres = 0.00760676722945

Courant Number mean: 0.0777791253032 max: 0.0959369552109
Time = 0.24

PIMPLE: iteration 1
DILUPBiCGStab:  Solving for Ux, Initial residual = 0.00749890090373, Final residual = 5.00910246572e-09, No Iterations 6
DILUPBiCGStab:  Solving for Uy, Initial residual = 0.00749890066142, Final residual = 5.0397360654e-09, No Iterations 6
DICPCG:  Solving for p, Initial residual = 0.155338374058, Final residual = 0.00146621778566, No Iterations 35
time step continuity errors : sum local = 3.39520551009e-09, global = 2.24404300689e-20, cumulative = 1.07143433172e-18
DICPCG:  Solving for p, Initial residual = 0.140580520169, Final residual = 0.00136531516802, No Iterations 35
time step continuity errors : sum local = 3.08334395819e-09, global = 1.82665268844e-20, cumulative = 1.0897008586e-18
DICPCG:  Solving for p, Initial residual = 0.00221004395497, Final residual = 1.87951526754e-05, No Iterations 84
time step continuity errors : sum local = 4.78414682004e-11, global = 3.4041164026e-20, cumulative = 1.12374202263e-18
DICPCG:  Solving for p, Initial residual = 0.000509198455267, Final residual = 9.6126819298e-13, No Iterations 197
time step continuity errors : sum local = 5.7383445e-18, global = 2.07904272198e-20, cumulative = 1.14453244985e-18
ExecutionTime = 20.96 s  ClockTime = 75 s

volFieldValue error_velocity_norm write:
    max(region0) of error_velocity_mag = 0.000112902789793

volFieldValue L2_error_velocity_norm write:
    sqrt(sum(region0)) of error_velocity_mag_squ = 0.0102241813835

volFieldValue error_pressure_norm write:
    max(region0) of error_pres = 0.00760676722945

Courant Number mean: 0.0766213004483 max: 0.0945088322984
Time = 0.2475

PIMPLE: iteration 1
DILUPBiCGStab:  Solving for Ux, Initial residual = 0.00749890165881, Final residual = 5.00522548104e-09, No Iterations 6
DILUPBiCGStab:  Solving for Uy, Initial residual = 0.00749890142047, Final residual = 5.03533906148e-09, No Iterations 6
DICPCG:  Solving for p, Initial residual = 0.155338270364, Final residual = 0.00146623018209, No Iterations 35
time step continuity errors : sum local = 3.29489507357e-09, global = 5.77019318169e-22, cumulative = 1.14510946917e-18
DICPCG:  Solving for p, Initial residual = 0.140580580541, Final residual = 0.00136531863743, No Iterations 35
time step continuity errors : sum local = 2.99223403017e-09, global = -6.38280909233e-22, cumulative = 1.14447118826e-18
DICPCG:  Solving for p, Initial residual = 0.00221005180481, Final residual = 1.87814003431e-05, No Iterations 84
time step continuity errors : sum local = 4.63938201526e-11, global = 3.20064872681e-21, cumulative = 1.14767183699e-18
DICPCG:  Solving for p, Initial residual = 0.000509199347277, Final residual = 9.61276775644e-13, No Iterations 197
time step continuity errors : sum local = 5.69142139466e-18, global = -6.49124255613e-21, cumulative = 1.14118059443e-18
ExecutionTime = 21.6 s  ClockTime = 76 s

volFieldValue error_velocity_norm write:
    max(region0) of error_velocity_mag = 0.000112902789793

volFieldValue L2_error_velocity_norm write:
    sqrt(sum(region0)) of error_velocity_mag_squ = 0.0102241813835

volFieldValue error_pressure_norm write:
    max(region0) of error_pres = 0.00760676722945

Courant Number mean: 0.0754807106836 max: 0.0931019680274
Time = 0.255

PIMPLE: iteration 1
DILUPBiCGStab:  Solving for Ux, Initial residual = 0.00749890238441, Final residual = 5.00146837682e-09, No Iterations 6
DILUPBiCGStab:  Solving for Uy, Initial residual = 0.00749890214995, Final residual = 5.03107755389e-09, No Iterations 6
DICPCG:  Solving for p, Initial residual = 0.155338166789, Final residual = 0.00146624201192, No Iterations 35
time step continuity errors : sum local = 3.19754715215e-09, global = 3.88535015331e-20, cumulative = 1.18003409596e-18
DICPCG:  Solving for p, Initial residual = 0.140580640025, Final residual = 0.00136532179354, No Iterations 35
time step continuity errors : sum local = 2.90381563099e-09, global = 1.56713762622e-20, cumulative = 1.19570547222e-18
DICPCG:  Solving for p, Initial residual = 0.00221005916744, Final residual = 1.87679486019e-05, No Iterations 84
time step continuity errors : sum local = 4.49906710538e-11, global = 2.17672023638e-20, cumulative = 1.21747267459e-18
DICPCG:  Solving for p, Initial residual = 0.000509200195083, Final residual = 9.61284827081e-13, No Iterations 197
time step continuity errors : sum local = 5.5952344429e-18, global = 1.02110851907e-20, cumulative = 1.22768375978e-18
ExecutionTime = 22.22 s  ClockTime = 76 s

volFieldValue error_velocity_norm write:
    max(region0) of error_velocity_mag = 0.000112902789793

volFieldValue L2_error_velocity_norm write:
    sqrt(sum(region0)) of error_velocity_mag_squ = 0.0102241813835

volFieldValue error_pressure_norm write:
    max(region0) of error_pres = 0.00760676722945

Courant Number mean: 0.0743570994689 max: 0.0917160459726
Time = 0.2625

PIMPLE: iteration 1
DILUPBiCGStab:  Solving for Ux, Initial residual = 0.00749890308181, Final residual = 4.99783185677e-09, No Iterations 6
DILUPBiCGStab:  Solving for Uy, Initial residual = 0.00749890285116, Final residual = 5.02693880661e-09, No Iterations 6
DICPCG:  Solving for p, Initial residual = 0.155338063345, Final residual = 0.00146625479404, No Iterations 35
time step continuity errors : sum local = 3.10307742315e-09, global = 1.09029666113e-20, cumulative = 1.23858672639e-18
DICPCG:  Solving for p, Initial residual = 0.140580699402, Final residual = 0.00136532502843, No Iterations 35
time step continuity errors : sum local = 2.81801021429e-09, global = -5.42114794363e-21, cumulative = 1.23316557845e-18
DICPCG:  Solving for p, Initial residual = 0.00221006640047, Final residual = 1.87548216389e-05, No Iterations 84
time step continuity errors : sum local = 4.36306889029e-11, global = -1.37585955778e-20, cumulative = 1.21940698287e-18
DICPCG:  Solving for p, Initial residual = 0.000509201023171, Final residual = 9.61292812057e-13, No Iterations 197
time step continuity errors : sum local = 5.50575320307e-18, global = -4.93365087774e-21, cumulative = 1.21447333199e-18
ExecutionTime = 22.85 s  ClockTime = 77 s

volFieldValue error_velocity_norm write:
    max(region0) of error_velocity_mag = 0.000112902789793

volFieldValue L2_error_velocity_norm write:
    sqrt(sum(region0)) of error_velocity_mag_squ = 0.0102241813835

volFieldValue error_pressure_norm write:
    max(region0) of error_pres = 0.00760676722945

Courant Number mean: 0.0732502140815 max: 0.0903507544219
Time = 0.27

PIMPLE: iteration 1
DILUPBiCGStab:  Solving for Ux, Initial residual = 0.00749890375224, Final residual = 4.99431507565e-09, No Iterations 6
DILUPBiCGStab:  Solving for Uy, Initial residual = 0.00749890352532, Final residual = 5.0229165856e-09, No Iterations 6
DICPCG:  Solving for p, Initial residual = 0.155337960871, Final residual = 0.00146626685986, No Iterations 35
time step continuity errors : sum local = 3.01139738195e-09, global = 1.16941626371e-20, cumulative = 1.22616749463e-18
DICPCG:  Solving for p, Initial residual = 0.140580756727, Final residual = 0.00136532791744, No Iterations 35
time step continuity errors : sum local = 2.73473957936e-09, global = 3.84403975145e-20, cumulative = 1.26460789214e-18
DICPCG:  Solving for p, Initial residual = 0.00221007337955, Final residual = 1.87419602828e-05, No Iterations 84
time step continuity errors : sum local = 4.23123933695e-11, global = -1.44145045751e-20, cumulative = 1.25019338757e-18
DICPCG:  Solving for p, Initial residual = 0.000509201805181, Final residual = 9.61301022009e-13, No Iterations 197
time step continuity errors : sum local = 5.35520966725e-18, global = 1.97927353381e-20, cumulative = 1.26998612291e-18
ExecutionTime = 23.5 s  ClockTime = 78 s

volFieldValue error_velocity_norm write:
    max(region0) of error_velocity_mag = 0.000112902789793

volFieldValue L2_error_velocity_norm write:
    sqrt(sum(region0)) of error_velocity_mag_squ = 0.0102241813835

volFieldValue error_pressure_norm write:
    max(region0) of error_pres = 0.00760676722945

Courant Number mean: 0.0721598055599 max: 0.0890057862953
Time = 0.2775

PIMPLE: iteration 1
DILUPBiCGStab:  Solving for Ux, Initial residual = 0.00749890439685, Final residual = 4.99091372251e-09, No Iterations 6
DILUPBiCGStab:  Solving for Uy, Initial residual = 0.00749890417361, Final residual = 5.01901040189e-09, No Iterations 6
DICPCG:  Solving for p, Initial residual = 0.155337859963, Final residual = 0.00146627883148, No Iterations 35
time step continuity errors : sum local = 2.92242590648e-09, global = 2.46100370369e-20, cumulative = 1.29459615994e-18
DICPCG:  Solving for p, Initial residual = 0.140580813164, Final residual = 0.00136533063417, No Iterations 35
time step continuity errors : sum local = 2.65392923006e-09, global = 1.98117131738e-20, cumulative = 1.31440787312e-18
DICPCG:  Solving for p, Initial residual = 0.00221008037851, Final residual = 1.87294401309e-05, No Iterations 84
time step continuity errors : sum local = 4.10346556471e-11, global = 1.23995395559e-20, cumulative = 1.32680741267e-18
DICPCG:  Solving for p, Initial residual = 0.00050920267841, Final residual = 9.61309055643e-13, No Iterations 197
time step continuity errors : sum local = 5.30158539428e-18, global = 1.1931131378e-20, cumulative = 1.33873854405e-18
ExecutionTime = 24.14 s  ClockTime = 79 s

volFieldValue error_velocity_norm write:
    max(region0) of error_velocity_mag = 0.000112902789793

volFieldValue L2_error_velocity_norm write:
    sqrt(sum(region0)) of error_velocity_mag_squ = 0.0102241813835

volFieldValue error_pressure_norm write:
    max(region0) of error_pres = 0.00760676722945

Courant Number mean: 0.0710856286474 max: 0.0876808390809
Time = 0.285

PIMPLE: iteration 1
DILUPBiCGStab:  Solving for Ux, Initial residual = 0.00749890501678, Final residual = 4.98762130323e-09, No Iterations 6
DILUPBiCGStab:  Solving for Uy, Initial residual = 0.00749890479713, Final residual = 5.01523094148e-09, No Iterations 6
DICPCG:  Solving for p, Initial residual = 0.155337759815, Final residual = 0.00146629037957, No Iterations 35
time step continuity errors : sum local = 2.83608235145e-09, global = 2.09529035963e-20, cumulative = 1.35969144765e-18
DICPCG:  Solving for p, Initial residual = 0.140580868349, Final residual = 0.00136533319867, No Iterations 35
time step continuity errors : sum local = 2.57550652003e-09, global = 1.81453551533e-20, cumulative = 1.3778368028e-18
DICPCG:  Solving for p, Initial residual = 0.00221008709012, Final residual = 1.87172291351e-05, No Iterations 84
time step continuity errors : sum local = 3.97961400441e-11, global = -1.24834824442e-20, cumulative = 1.36535332036e-18
DICPCG:  Solving for p, Initial residual = 0.000509203512647, Final residual = 9.61317130856e-13, No Iterations 197
time step continuity errors : sum local = 5.27820164448e-18, global = 1.36006300133e-20, cumulative = 1.37895395037e-18
ExecutionTime = 24.84 s  ClockTime = 80 s

volFieldValue error_velocity_norm write:
    max(region0) of error_velocity_mag = 0.000112902789793

volFieldValue L2_error_velocity_norm write:
    sqrt(sum(region0)) of error_velocity_mag_squ = 0.0102241813835

volFieldValue error_pressure_norm write:
    max(region0) of error_pres = 0.00760676722945

Courant Number mean: 0.0700274417374 max: 0.0863756147714
Time = 0.2925

PIMPLE: iteration 1
DILUPBiCGStab:  Solving for Ux, Initial residual = 0.00749890561306, Final residual = 4.9844301508e-09, No Iterations 6
DILUPBiCGStab:  Solving for Uy, Initial residual = 0.00749890539695, Final residual = 5.0115624752e-09, No Iterations 6
DICPCG:  Solving for p, Initial residual = 0.155337659771, Final residual = 0.00146630151036, No Iterations 35
time step continuity errors : sum local = 2.75228913723e-09, global = 8.60150830597e-21, cumulative = 1.38755545868e-18
DICPCG:  Solving for p, Initial residual = 0.140580921989, Final residual = 0.00136533546922, No Iterations 35
time step continuity errors : sum local = 2.49940064724e-09, global = 4.00235061494e-20, cumulative = 1.42757896482e-18
DICPCG:  Solving for p, Initial residual = 0.00221009356476, Final residual = 1.87052959533e-05, No Iterations 84
time step continuity errors : sum local = 3.85955604046e-11, global = 1.53188353231e-20, cumulative = 1.44289780015e-18
DICPCG:  Solving for p, Initial residual = 0.000509204316546, Final residual = 9.61325437177e-13, No Iterations 197
time step continuity errors : sum local = 5.07532411507e-18, global = -1.04945375356e-20, cumulative = 1.43240326261e-18
ExecutionTime = 25.53 s  ClockTime = 80 s

volFieldValue error_velocity_norm write:
    max(region0) of error_velocity_mag = 0.000112902789793

volFieldValue L2_error_velocity_norm write:
    sqrt(sum(region0)) of error_velocity_mag_squ = 0.0102241813835

volFieldValue error_pressure_norm write:
    max(region0) of error_pres = 0.00760676722945

Courant Number mean: 0.0689850068188 max: 0.0850898197943
Time = 0.3

PIMPLE: iteration 1
DILUPBiCGStab:  Solving for Ux, Initial residual = 0.00749890618672, Final residual = 4.98133633792e-09, No Iterations 6
DILUPBiCGStab:  Solving for Uy, Initial residual = 0.00749890597407, Final residual = 5.00799513334e-09, No Iterations 6
DICPCG:  Solving for p, Initial residual = 0.15533756073, Final residual = 0.0014663124136, No Iterations 35
time step continuity errors : sum local = 2.67097128547e-09, global = 2.18398640731e-20, cumulative = 1.45424312669e-18
DICPCG:  Solving for p, Initial residual = 0.140580973811, Final residual = 0.00136533751493, No Iterations 35
time step continuity errors : sum local = 2.42554330911e-09, global = 1.85613569344e-20, cumulative = 1.47280448362e-18
DICPCG:  Solving for p, Initial residual = 0.00221009970357, Final residual = 1.86936509396e-05, No Iterations 84
time step continuity errors : sum local = 3.74317600637e-11, global = 3.89231711926e-20, cumulative = 1.51172765481e-18
DICPCG:  Solving for p, Initial residual = 0.00050920513512, Final residual = 9.61333369913e-13, No Iterations 197
time step continuity errors : sum local = 5.05040116602e-18, global = 2.59234083199e-20, cumulative = 1.53765106313e-18
ExecutionTime = 26.21 s  ClockTime = 81 s

volFieldValue error_velocity_norm write:
    max(region0) of error_velocity_mag = 0.000112902789793

volFieldValue L2_error_velocity_norm write:
    sqrt(sum(region0)) of error_velocity_mag_squ = 0.0102241813835

volFieldValue error_pressure_norm write:
    max(region0) of error_pres = 0.00760676722945

End

