/*---------------------------------------------------------------------------*\
| =========                 |                                                 |
| \\      /  F ield         | OpenFOAM: The Open Source CFD Toolbox           |
|  \\    /   O peration     | Version:  2406                                  |
|   \\  /    A nd           | Website:  www.openfoam.com                      |
|    \\/     M anipulation  |                                                 |
\*---------------------------------------------------------------------------*/
Build  : _630d60de3b-20240620 OPENFOAM=2406 version=v2406
Arch   : "LSB;label=32;scalar=64"
Exec   : pimpleFoam
Date   : Sep 05 2024
Time   : 21:14:40
Host   : hakan-X556UQK
PID    : 34196
I/O    : uncollated
Case   : /home/hakan/courses/testSimulation/tgv2dTests/tgv2d_temporal/pimple/pimple_nu1/TGV_temporal
nProcs : 1
trapFpe: Floating point exception trapping enabled (FOAM_SIGFPE).
fileModificationChecking : Monitoring run-time modified files using timeStampMaster (fileModificationSkew 5, maxFileModificationPolls 20)
allowSystemOperations : Allowing user-supplied system call operations

// * * * * * * * * * * * * * * * * * * * * * * * * * * * * * * * * * * * * * //
Create time

Create mesh for time = 0


PIMPLE: Operating solver in PISO mode

Reading field p

Using #codeStream at line 19 in file "0/p"
Using #codeStream with "/home/hakan/courses/testSimulation/tgv2dTests/tgv2d_temporal/pimple/pimple_nu1/TGV_temporal/dynamicCode/platforms/linux64GccDPInt32Opt/lib/libcodeStream_537564b8bd232f4ddf4797bc6f60eef024868c2e.so"
Creating new library in "dynamicCode/_537564b8bd232f4ddf4797bc6f60eef024868c2e/platforms/linux64GccDPInt32Opt/lib/libcodeStream_537564b8bd232f4ddf4797bc6f60eef024868c2e.so"
Invoking wmake libso /home/hakan/courses/testSimulation/tgv2dTests/tgv2d_temporal/pimple/pimple_nu1/TGV_temporal/dynamicCode/_537564b8bd232f4ddf4797bc6f60eef024868c2e
wmake libso /home/hakan/courses/testSimulation/tgv2dTests/tgv2d_temporal/pimple/pimple_nu1/TGV_temporal/dynamicCode/_537564b8bd232f4ddf4797bc6f60eef024868c2e
    dep: codeStreamTemplate.C
    Ctoo: codeStreamTemplate.C
    link: /home/hakan/courses/testSimulation/tgv2dTests/tgv2d_temporal/pimple/pimple_nu1/TGV_temporal/dynamicCode/_537564b8bd232f4ddf4797bc6f60eef024868c2e/../platforms/linux64GccDPInt32Opt/lib/libcodeStream_537564b8bd232f4ddf4797bc6f60eef024868c2e.so
Reading field U

Using #codeStream at line 19 in file "0/U"
Using #codeStream with "/home/hakan/courses/testSimulation/tgv2dTests/tgv2d_temporal/pimple/pimple_nu1/TGV_temporal/dynamicCode/platforms/linux64GccDPInt32Opt/lib/libcodeStream_18dd48bdf5aea29696d9cbfe8eb27bc690b7dc03.so"
Creating new library in "dynamicCode/_18dd48bdf5aea29696d9cbfe8eb27bc690b7dc03/platforms/linux64GccDPInt32Opt/lib/libcodeStream_18dd48bdf5aea29696d9cbfe8eb27bc690b7dc03.so"
Invoking wmake libso /home/hakan/courses/testSimulation/tgv2dTests/tgv2d_temporal/pimple/pimple_nu1/TGV_temporal/dynamicCode/_18dd48bdf5aea29696d9cbfe8eb27bc690b7dc03
wmake libso /home/hakan/courses/testSimulation/tgv2dTests/tgv2d_temporal/pimple/pimple_nu1/TGV_temporal/dynamicCode/_18dd48bdf5aea29696d9cbfe8eb27bc690b7dc03
    dep: codeStreamTemplate.C
    Ctoo: codeStreamTemplate.C
    link: /home/hakan/courses/testSimulation/tgv2dTests/tgv2d_temporal/pimple/pimple_nu1/TGV_temporal/dynamicCode/_18dd48bdf5aea29696d9cbfe8eb27bc690b7dc03/../platforms/linux64GccDPInt32Opt/lib/libcodeStream_18dd48bdf5aea29696d9cbfe8eb27bc690b7dc03.so
Reading/calculating face flux field phi

Selecting incompressible transport model Newtonian
Selecting turbulence model type laminar
Selecting laminar stress model Stokes
No MRF models present

No finite volume options present
Courant Number mean: 0.495184637222 max: 0.610786900035
Courant Number mean: 0.495184637222 max: 0.610786900035

Starting time loop

Using dynamicCode for functionObject diff at line 51 in "/home/hakan/courses/testSimulation/tgv2dTests/tgv2d_temporal/pimple/pimple_nu1/TGV_temporal/system/controlDict/functions/diff"
Creating new library in "dynamicCode/diff/platforms/linux64GccDPInt32Opt/lib/libdiff_d924c92ec3fe0b16fec6b8892a9fc1c20fa93dd8.so"
Invoking wmake libso /home/hakan/courses/testSimulation/tgv2dTests/tgv2d_temporal/pimple/pimple_nu1/TGV_temporal/dynamicCode/diff
wmake libso /home/hakan/courses/testSimulation/tgv2dTests/tgv2d_temporal/pimple/pimple_nu1/TGV_temporal/dynamicCode/diff
    dep: functionObjectTemplate.C
    Ctoo: functionObjectTemplate.C
    link: /home/hakan/courses/testSimulation/tgv2dTests/tgv2d_temporal/pimple/pimple_nu1/TGV_temporal/dynamicCode/diff/../platforms/linux64GccDPInt32Opt/lib/libdiff_d924c92ec3fe0b16fec6b8892a9fc1c20fa93dd8.so
Courant Number mean: 0.495184637222 max: 0.610786900035
Time = 0.03

PIMPLE: iteration 1
DILUPBiCGStab:  Solving for Ux, Initial residual = 0.0291200164644, Final residual = 8.62067033331e-09, No Iterations 16
DILUPBiCGStab:  Solving for Uy, Initial residual = 0.0291200164644, Final residual = 8.7308515263e-09, No Iterations 16
DICPCG:  Solving for p, Initial residual = 0.999968579508, Final residual = 0.00935126519144, No Iterations 35
time step continuity errors : sum local = 3.48703130362e-07, global = -2.32589379778e-20, cumulative = -2.32589379778e-20
DICPCG:  Solving for p, Initial residual = 0.99818156026, Final residual = 0.00964512151634, No Iterations 35
time step continuity errors : sum local = 3.47964173719e-07, global = -2.31543670945e-20, cumulative = -4.64133050724e-20
DICPCG:  Solving for p, Initial residual = 0.0239333325099, Final residual = 0.000227622911288, No Iterations 49
time step continuity errors : sum local = 7.62542658037e-09, global = 4.68259313687e-20, cumulative = 4.12626296305e-22
DICPCG:  Solving for p, Initial residual = 0.0058706092912, Final residual = 8.91130259326e-13, No Iterations 208
time step continuity errors : sum local = 4.22386592184e-17, global = 1.28650415544e-19, cumulative = 1.2906304184e-19
ExecutionTime = 0.64 s  ClockTime = 47 s

    Reading error_velocity_mag (volScalarField)
    Reading error_velocity_mag_squ (volScalarField)
    Reading error_pres (volScalarField)
volFieldValue error_velocity_norm write:
    max(region0) of error_velocity_mag = 0.00165921739352

volFieldValue L2_error_velocity_norm write:
    sqrt(sum(region0)) of error_velocity_mag_squ = 0.15045356157

volFieldValue error_pressure_norm write:
    max(region0) of error_pres = 0.0306064418097

Courant Number mean: 0.467170994549 max: 0.576234690322
Time = 0.06

PIMPLE: iteration 1
DILUPBiCGStab:  Solving for Ux, Initial residual = 0.029987969422, Final residual = 8.73015399863e-09, No Iterations 12
DILUPBiCGStab:  Solving for Uy, Initial residual = 0.0299878406832, Final residual = 9.5780580366e-09, No Iterations 12
DICPCG:  Solving for p, Initial residual = 0.999837004501, Final residual = 0.00953044149275, No Iterations 35
time step continuity errors : sum local = 3.47939368584e-07, global = -4.96380558878e-20, cumulative = 7.94249859525e-20
DICPCG:  Solving for p, Initial residual = 0.99802538367, Final residual = 0.00967536484927, No Iterations 35
time step continuity errors : sum local = 3.36368356709e-07, global = 5.19077896652e-20, cumulative = 1.31332775618e-19
DICPCG:  Solving for p, Initial residual = 0.0269207963163, Final residual = 0.00026052849527, No Iterations 48
time step continuity errors : sum local = 7.36180772317e-09, global = 3.54948527176e-19, cumulative = 4.86281302793e-19
DICPCG:  Solving for p, Initial residual = 0.00631177546187, Final residual = 9.41718928275e-13, No Iterations 211
time step continuity errors : sum local = 3.8738883799e-17, global = -4.1197950951e-20, cumulative = 4.45083351842e-19
ExecutionTime = 1.16 s  ClockTime = 47 s

volFieldValue error_velocity_norm write:
    max(region0) of error_velocity_mag = 0.00165921739352

volFieldValue L2_error_velocity_norm write:
    sqrt(sum(region0)) of error_velocity_mag_squ = 0.15045356157

volFieldValue error_pressure_norm write:
    max(region0) of error_pres = 0.0306064418097

Courant Number mean: 0.440513228623 max: 0.543354618788
Time = 0.09

PIMPLE: iteration 1
DILUPBiCGStab:  Solving for Ux, Initial residual = 0.029988476553, Final residual = 8.72151120693e-09, No Iterations 12
DILUPBiCGStab:  Solving for Uy, Initial residual = 0.0299885661632, Final residual = 9.57766134525e-09, No Iterations 12
DICPCG:  Solving for p, Initial residual = 0.99984575847, Final residual = 0.00957302987381, No Iterations 35
time step continuity errors : sum local = 3.26354266608e-07, global = 1.98684980047e-19, cumulative = 6.43768331889e-19
DICPCG:  Solving for p, Initial residual = 0.997755455218, Final residual = 0.00963838009507, No Iterations 35
time step continuity errors : sum local = 3.07177955723e-07, global = 3.63080164233e-19, cumulative = 1.00684849612e-18
DICPCG:  Solving for p, Initial residual = 0.027185936196, Final residual = 0.00025751217098, No Iterations 87
time step continuity errors : sum local = 5.44604298904e-09, global = 2.57699969147e-20, cumulative = 1.03261849304e-18
DICPCG:  Solving for p, Initial residual = 0.00678387447303, Final residual = 9.8097346901e-13, No Iterations 209
time step continuity errors : sum local = 3.56063972177e-17, global = 7.79156779879e-20, cumulative = 1.11053417102e-18
ExecutionTime = 1.84 s  ClockTime = 48 s

volFieldValue error_velocity_norm write:
    max(region0) of error_velocity_mag = 0.00165921739352

volFieldValue L2_error_velocity_norm write:
    sqrt(sum(region0)) of error_velocity_mag_squ = 0.15045356157

volFieldValue error_pressure_norm write:
    max(region0) of error_pres = 0.0306064418097

Courant Number mean: 0.413858080587 max: 0.510477396914
Time = 0.12

PIMPLE: iteration 1
DILUPBiCGStab:  Solving for Ux, Initial residual = 0.0299892026681, Final residual = 8.69861145262e-09, No Iterations 12
DILUPBiCGStab:  Solving for Uy, Initial residual = 0.0299891585001, Final residual = 9.51219413598e-09, No Iterations 12
DICPCG:  Solving for p, Initial residual = 0.999958890389, Final residual = 0.00949134427479, No Iterations 35
time step continuity errors : sum local = 2.85335243743e-07, global = 1.20026354285e-19, cumulative = 1.23056052531e-18
DICPCG:  Solving for p, Initial residual = 0.998330525724, Final residual = 0.00964979014979, No Iterations 35
time step continuity errors : sum local = 2.75590988548e-07, global = 1.47664245146e-19, cumulative = 1.37822477045e-18
DICPCG:  Solving for p, Initial residual = 0.0277604972268, Final residual = 0.000253006103803, No Iterations 49
time step continuity errors : sum local = 5.69748903865e-09, global = 1.37502338672e-19, cumulative = 1.51572710913e-18
DICPCG:  Solving for p, Initial residual = 0.0066071452017, Final residual = 9.2747073695e-13, No Iterations 209
time step continuity errors : sum local = 2.96208899884e-17, global = -6.15004447177e-20, cumulative = 1.45422666441e-18
ExecutionTime = 2.35 s  ClockTime = 49 s

volFieldValue error_velocity_norm write:
    max(region0) of error_velocity_mag = 0.00165921739352

volFieldValue L2_error_velocity_norm write:
    sqrt(sum(region0)) of error_velocity_mag_squ = 0.15045356157

volFieldValue error_pressure_norm write:
    max(region0) of error_pres = 0.0306064418097

Courant Number mean: 0.390691085386 max: 0.481902208785
Time = 0.15

PIMPLE: iteration 1
DILUPBiCGStab:  Solving for Ux, Initial residual = 0.0299896952678, Final residual = 8.69414559972e-09, No Iterations 12
DILUPBiCGStab:  Solving for Uy, Initial residual = 0.0299895818909, Final residual = 9.42645202016e-09, No Iterations 12
DICPCG:  Solving for p, Initial residual = 0.999838901615, Final residual = 0.00953491949312, No Iterations 35
time step continuity errors : sum local = 2.4226381433e-07, global = 1.88224975094e-19, cumulative = 1.6424516395e-18
DICPCG:  Solving for p, Initial residual = 0.99804577083, Final residual = 0.00967181748702, No Iterations 35
time step continuity errors : sum local = 2.34026284368e-07, global = 4.07373363161e-20, cumulative = 1.68318897582e-18
DICPCG:  Solving for p, Initial residual = 0.0268468739005, Final residual = 0.000262041172362, No Iterations 48
time step continuity errors : sum local = 5.16966724313e-09, global = 1.319552294e-19, cumulative = 1.81514420522e-18
DICPCG:  Solving for p, Initial residual = 0.00628731334659, Final residual = 9.34023134045e-13, No Iterations 210
time step continuity errors : sum local = 2.75255244192e-17, global = 3.83694024802e-20, cumulative = 1.8535136077e-18
ExecutionTime = 2.94 s  ClockTime = 49 s

volFieldValue error_velocity_norm write:
    max(region0) of error_velocity_mag = 0.00165921739352

volFieldValue L2_error_velocity_norm write:
    sqrt(sum(region0)) of error_velocity_mag_squ = 0.15045356157

volFieldValue error_pressure_norm write:
    max(region0) of error_pres = 0.0306064418097

Courant Number mean: 0.367085003549 max: 0.452785280385
Time = 0.18

PIMPLE: iteration 1
DILUPBiCGStab:  Solving for Ux, Initial residual = 0.0299903835977, Final residual = 8.68407558176e-09, No Iterations 12
DILUPBiCGStab:  Solving for Uy, Initial residual = 0.0299904619465, Final residual = 9.41304547484e-09, No Iterations 12
DICPCG:  Solving for p, Initial residual = 0.999851243683, Final residual = 0.00958123418554, No Iterations 35
time step continuity errors : sum local = 2.33985424748e-07, global = 5.77160874811e-20, cumulative = 1.91122969518e-18
DICPCG:  Solving for p, Initial residual = 0.997782496042, Final residual = 0.00964269593006, No Iterations 35
time step continuity errors : sum local = 2.20239640654e-07, global = 2.02710317901e-19, cumulative = 2.11394001308e-18
DICPCG:  Solving for p, Initial residual = 0.0280047729087, Final residual = 0.000263667281568, No Iterations 87
time step continuity errors : sum local = 3.88163599223e-09, global = 1.84758270537e-19, cumulative = 2.29869828362e-18
DICPCG:  Solving for p, Initial residual = 0.00698325214669, Final residual = 9.87462169186e-13, No Iterations 209
time step continuity errors : sum local = 2.71406955078e-17, global = -3.48522507891e-20, cumulative = 2.26384603283e-18
ExecutionTime = 3.49 s  ClockTime = 50 s

volFieldValue error_velocity_norm write:
    max(region0) of error_velocity_mag = 0.00165921739352

volFieldValue L2_error_velocity_norm write:
    sqrt(sum(region0)) of error_velocity_mag_squ = 0.15045356157

volFieldValue error_pressure_norm write:
    max(region0) of error_pres = 0.0306064418097

Courant Number mean: 0.34650204216 max: 0.427397013698
Time = 0.21

PIMPLE: iteration 1
DILUPBiCGStab:  Solving for Ux, Initial residual = 0.0299907477558, Final residual = 8.66663731556e-09, No Iterations 12
DILUPBiCGStab:  Solving for Uy, Initial residual = 0.0299907074976, Final residual = 9.35736307545e-09, No Iterations 12
DICPCG:  Solving for p, Initial residual = 0.999957130447, Final residual = 0.00951019699031, No Iterations 35
time step continuity errors : sum local = 1.92120682704e-07, global = 2.3072676592e-20, cumulative = 2.28691870942e-18
DICPCG:  Solving for p, Initial residual = 0.998342684512, Final residual = 0.0096450548031, No Iterations 35
time step continuity errors : sum local = 1.85133630884e-07, global = 6.76474802073e-20, cumulative = 2.35456618963e-18
DICPCG:  Solving for p, Initial residual = 0.0267096981418, Final residual = 0.000266696106969, No Iterations 47
time step continuity errors : sum local = 4.10065831487e-09, global = -6.16070849123e-20, cumulative = 2.29295910472e-18
DICPCG:  Solving for p, Initial residual = 0.00636032675155, Final residual = 9.65001799578e-13, No Iterations 208
time step continuity errors : sum local = 2.49739002062e-17, global = 9.27962416471e-20, cumulative = 2.38575534636e-18
ExecutionTime = 4.05 s  ClockTime = 50 s

volFieldValue error_velocity_norm write:
    max(region0) of error_velocity_mag = 0.00165921739352

volFieldValue L2_error_velocity_norm write:
    sqrt(sum(region0)) of error_velocity_mag_squ = 0.15045356157

volFieldValue error_pressure_norm write:
    max(region0) of error_pres = 0.0306064418097

Courant Number mean: 0.32559489285 max: 0.401608860225
Time = 0.24

PIMPLE: iteration 1
DILUPBiCGStab:  Solving for Ux, Initial residual = 0.0299912841787, Final residual = 8.66489315384e-09, No Iterations 12
DILUPBiCGStab:  Solving for Uy, Initial residual = 0.0299911917861, Final residual = 9.29208256906e-09, No Iterations 12
DICPCG:  Solving for p, Initial residual = 0.999858007024, Final residual = 0.0095180745306, No Iterations 35
time step continuity errors : sum local = 1.74327714957e-07, global = 6.00594407695e-20, cumulative = 2.44581478713e-18
DICPCG:  Solving for p, Initial residual = 0.998134326918, Final residual = 0.00968673926327, No Iterations 35
time step continuity errors : sum local = 1.69272197382e-07, global = 2.94256783311e-20, cumulative = 2.47524046546e-18
DICPCG:  Solving for p, Initial residual = 0.0278845313053, Final residual = 0.000259877015253, No Iterations 47
time step continuity errors : sum local = 3.42740374885e-09, global = -2.39645085785e-20, cumulative = 2.45127595688e-18
DICPCG:  Solving for p, Initial residual = 0.00654750636786, Final residual = 9.88990270764e-13, No Iterations 209
time step continuity errors : sum local = 2.33660847684e-17, global = 7.85272454436e-20, cumulative = 2.52980320233e-18
ExecutionTime = 4.72 s  ClockTime = 51 s

volFieldValue error_velocity_norm write:
    max(region0) of error_velocity_mag = 0.00165921739352

volFieldValue L2_error_velocity_norm write:
    sqrt(sum(region0)) of error_velocity_mag_squ = 0.15045356157

volFieldValue error_pressure_norm write:
    max(region0) of error_pres = 0.0306064418097

Courant Number mean: 0.307309467676 max: 0.379054370485
Time = 0.27

PIMPLE: iteration 1
DILUPBiCGStab:  Solving for Ux, Initial residual = 0.0299915083416, Final residual = 8.65836334937e-09, No Iterations 12
DILUPBiCGStab:  Solving for Uy, Initial residual = 0.0299915455008, Final residual = 9.26694349291e-09, No Iterations 12
DICPCG:  Solving for p, Initial residual = 0.99988007624, Final residual = 0.00952930348831, No Iterations 35
time step continuity errors : sum local = 1.55641245274e-07, global = -7.20956273849e-20, cumulative = 2.45770757494e-18
DICPCG:  Solving for p, Initial residual = 0.99791233195, Final residual = 0.00965902696583, No Iterations 35
time step continuity errors : sum local = 1.48028351596e-07, global = -1.05251360942e-19, cumulative = 2.352456214e-18
DICPCG:  Solving for p, Initial residual = 0.026919756918, Final residual = 0.000251751458482, No Iterations 86
time step continuity errors : sum local = 2.59164506943e-09, global = 9.46550668632e-20, cumulative = 2.44711128086e-18
DICPCG:  Solving for p, Initial residual = 0.00666933669766, Final residual = 9.53426534691e-13, No Iterations 209
time step continuity errors : sum local = 2.18954883513e-17, global = -1.01082434677e-19, cumulative = 2.34602884619e-18
ExecutionTime = 5.57 s  ClockTime = 52 s

volFieldValue error_velocity_norm write:
    max(region0) of error_velocity_mag = 0.00165921739352

volFieldValue L2_error_velocity_norm write:
    sqrt(sum(region0)) of error_velocity_mag_squ = 0.15045356157

volFieldValue error_pressure_norm write:
    max(region0) of error_pres = 0.0306064418097

Courant Number mean: 0.288791994319 max: 0.356213714132
Time = 0.3

PIMPLE: iteration 1
DILUPBiCGStab:  Solving for Ux, Initial residual = 0.029991916839, Final residual = 8.66283151898e-09, No Iterations 12
DILUPBiCGStab:  Solving for Uy, Initial residual = 0.0299918892439, Final residual = 9.24777569272e-09, No Iterations 12
DICPCG:  Solving for p, Initial residual = 0.999964719848, Final residual = 0.00949011891568, No Iterations 35
time step continuity errors : sum local = 1.38545847281e-07, global = -7.58160275928e-20, cumulative = 2.27021281859e-18
DICPCG:  Solving for p, Initial residual = 0.99835751774, Final residual = 0.00967038975645, No Iterations 35
time step continuity errors : sum local = 1.34134121603e-07, global = 4.84520978631e-21, cumulative = 2.27505802838e-18
DICPCG:  Solving for p, Initial residual = 0.0277190565649, Final residual = 0.000259154421336, No Iterations 49
time step continuity errors : sum local = 2.84253326953e-09, global = -3.25265985141e-20, cumulative = 2.24253142987e-18
DICPCG:  Solving for p, Initial residual = 0.00659774881002, Final residual = 9.15438588106e-13, No Iterations 209
time step continuity errors : sum local = 2.05424726225e-17, global = -9.88651233035e-20, cumulative = 2.14366630656e-18
ExecutionTime = 6.36 s  ClockTime = 53 s

volFieldValue error_velocity_norm write:
    max(region0) of error_velocity_mag = 0.00165921739352

volFieldValue L2_error_velocity_norm write:
    sqrt(sum(region0)) of error_velocity_mag_squ = 0.15045356157

volFieldValue error_pressure_norm write:
    max(region0) of error_pres = 0.0306064418097

End

