/*---------------------------------------------------------------------------*\
| =========                 |                                                 |
| \\      /  F ield         | OpenFOAM: The Open Source CFD Toolbox           |
|  \\    /   O peration     | Version:  2406                                  |
|   \\  /    A nd           | Website:  www.openfoam.com                      |
|    \\/     M anipulation  |                                                 |
\*---------------------------------------------------------------------------*/
Build  : _630d60de3b-20240620 OPENFOAM=2406 version=v2406
Arch   : "LSB;label=32;scalar=64"
Exec   : pimpleFoam
Date   : Sep 07 2024
Time   : 22:00:33
Host   : hakan-X556UQK
PID    : 18052
I/O    : uncollated
Case   : /home/hakan/courses/testSimulation/tgv2dTests/tgv2d_temporal/pimple/pimple_nu0.0000001/TGV_temporal
nProcs : 1
trapFpe: Floating point exception trapping enabled (FOAM_SIGFPE).
fileModificationChecking : Monitoring run-time modified files using timeStampMaster (fileModificationSkew 5, maxFileModificationPolls 20)
allowSystemOperations : Allowing user-supplied system call operations

// * * * * * * * * * * * * * * * * * * * * * * * * * * * * * * * * * * * * * //
Create time

Create mesh for time = 0


PIMPLE: Operating solver in PISO mode

Reading field p

Using #codeStream at line 19 in file "0/p"
Using #codeStream with "/home/hakan/courses/testSimulation/tgv2dTests/tgv2d_temporal/pimple/pimple_nu0.0000001/TGV_temporal/dynamicCode/platforms/linux64GccDPInt32Opt/lib/libcodeStream_537564b8bd232f4ddf4797bc6f60eef024868c2e.so"
Creating new library in "dynamicCode/_537564b8bd232f4ddf4797bc6f60eef024868c2e/platforms/linux64GccDPInt32Opt/lib/libcodeStream_537564b8bd232f4ddf4797bc6f60eef024868c2e.so"
Invoking wmake libso /home/hakan/courses/testSimulation/tgv2dTests/tgv2d_temporal/pimple/pimple_nu0.0000001/TGV_temporal/dynamicCode/_537564b8bd232f4ddf4797bc6f60eef024868c2e
wmake libso /home/hakan/courses/testSimulation/tgv2dTests/tgv2d_temporal/pimple/pimple_nu0.0000001/TGV_temporal/dynamicCode/_537564b8bd232f4ddf4797bc6f60eef024868c2e
    dep: codeStreamTemplate.C
    Ctoo: codeStreamTemplate.C
    link: /home/hakan/courses/testSimulation/tgv2dTests/tgv2d_temporal/pimple/pimple_nu0.0000001/TGV_temporal/dynamicCode/_537564b8bd232f4ddf4797bc6f60eef024868c2e/../platforms/linux64GccDPInt32Opt/lib/libcodeStream_537564b8bd232f4ddf4797bc6f60eef024868c2e.so
Reading field U

Using #codeStream at line 19 in file "0/U"
Using #codeStream with "/home/hakan/courses/testSimulation/tgv2dTests/tgv2d_temporal/pimple/pimple_nu0.0000001/TGV_temporal/dynamicCode/platforms/linux64GccDPInt32Opt/lib/libcodeStream_18dd48bdf5aea29696d9cbfe8eb27bc690b7dc03.so"
Creating new library in "dynamicCode/_18dd48bdf5aea29696d9cbfe8eb27bc690b7dc03/platforms/linux64GccDPInt32Opt/lib/libcodeStream_18dd48bdf5aea29696d9cbfe8eb27bc690b7dc03.so"
Invoking wmake libso /home/hakan/courses/testSimulation/tgv2dTests/tgv2d_temporal/pimple/pimple_nu0.0000001/TGV_temporal/dynamicCode/_18dd48bdf5aea29696d9cbfe8eb27bc690b7dc03
wmake libso /home/hakan/courses/testSimulation/tgv2dTests/tgv2d_temporal/pimple/pimple_nu0.0000001/TGV_temporal/dynamicCode/_18dd48bdf5aea29696d9cbfe8eb27bc690b7dc03
    dep: codeStreamTemplate.C
    Ctoo: codeStreamTemplate.C
    link: /home/hakan/courses/testSimulation/tgv2dTests/tgv2d_temporal/pimple/pimple_nu0.0000001/TGV_temporal/dynamicCode/_18dd48bdf5aea29696d9cbfe8eb27bc690b7dc03/../platforms/linux64GccDPInt32Opt/lib/libcodeStream_18dd48bdf5aea29696d9cbfe8eb27bc690b7dc03.so
Reading/calculating face flux field phi

Selecting incompressible transport model Newtonian
Selecting turbulence model type laminar
Selecting laminar stress model Stokes
No MRF models present

No finite volume options present
Courant Number mean: 0.0618980796527 max: 0.0763483625043
Courant Number mean: 0.0618980796527 max: 0.0763483625043

Starting time loop

Using dynamicCode for functionObject diff at line 51 in "/home/hakan/courses/testSimulation/tgv2dTests/tgv2d_temporal/pimple/pimple_nu0.0000001/TGV_temporal/system/controlDict/functions/diff"
Creating new library in "dynamicCode/diff/platforms/linux64GccDPInt32Opt/lib/libdiff_d924c92ec3fe0b16fec6b8892a9fc1c20fa93dd8.so"
Invoking wmake libso /home/hakan/courses/testSimulation/tgv2dTests/tgv2d_temporal/pimple/pimple_nu0.0000001/TGV_temporal/dynamicCode/diff
wmake libso /home/hakan/courses/testSimulation/tgv2dTests/tgv2d_temporal/pimple/pimple_nu0.0000001/TGV_temporal/dynamicCode/diff
    dep: functionObjectTemplate.C
    Ctoo: functionObjectTemplate.C
    link: /home/hakan/courses/testSimulation/tgv2dTests/tgv2d_temporal/pimple/pimple_nu0.0000001/TGV_temporal/dynamicCode/diff/../platforms/linux64GccDPInt32Opt/lib/libdiff_d924c92ec3fe0b16fec6b8892a9fc1c20fa93dd8.so
Courant Number mean: 0.0618980796527 max: 0.0763483625043
Time = 0.00375

PIMPLE: iteration 1
DILUPBiCGStab:  Solving for Ux, Initial residual = 8.86740543821e-07, Final residual = 7.00415632548e-10, No Iterations 1
DILUPBiCGStab:  Solving for Uy, Initial residual = 8.86740543837e-07, Final residual = 7.00415792857e-10, No Iterations 1
DICPCG:  Solving for p, Initial residual = 0.000903908877545, Final residual = 8.51122640546e-06, No Iterations 35
time step continuity errors : sum local = 1.97998250251e-10, global = 3.30921902135e-20, cumulative = 3.30921902135e-20
DICPCG:  Solving for p, Initial residual = 9.44088199864e-06, Final residual = 9.06123050545e-08, No Iterations 82
time step continuity errors : sum local = 2.06080762004e-12, global = -3.29562525966e-20, cumulative = 1.35937616892e-22
DICPCG:  Solving for p, Initial residual = 1.62509289486e-07, Final residual = 1.41203357655e-09, No Iterations 41
time step continuity errors : sum local = 3.21161498194e-14, global = -4.34047388787e-21, cumulative = -4.20453627098e-21
DICPCG:  Solving for p, Initial residual = 3.31224214266e-09, Final residual = 8.66229734714e-13, No Iterations 112
time step continuity errors : sum local = 2.04410402299e-17, global = -1.07869234651e-20, cumulative = -1.49914597361e-20
ExecutionTime = 0.35 s  ClockTime = 26 s

    Reading error_velocity_mag (volScalarField)
    Reading error_velocity_mag_squ (volScalarField)
    Reading error_pres (volScalarField)
volFieldValue error_velocity_norm write:
    max(region0) of error_velocity_mag = 6.37061867945e-06

volFieldValue L2_error_velocity_norm write:
    sqrt(sum(region0)) of error_velocity_mag_squ = 0.000577254758083

volFieldValue error_pressure_norm write:
    max(region0) of error_pres = 0.000902094388672

Courant Number mean: 0.061898078491 max: 0.076348361413
Time = 0.0075

PIMPLE: iteration 1
DILUPBiCGStab:  Solving for Ux, Initial residual = 3.54266017129e-06, Final residual = 2.79841704867e-09, No Iterations 1
DILUPBiCGStab:  Solving for Uy, Initial residual = 3.54266017492e-06, Final residual = 2.79841764323e-09, No Iterations 1
DICPCG:  Solving for p, Initial residual = 4.52733851962e-06, Final residual = 3.77162884043e-08, No Iterations 9
time step continuity errors : sum local = 9.17609364691e-13, global = 1.49402988827e-20, cumulative = -5.11608533579e-23
DICPCG:  Solving for p, Initial residual = 1.14072086929e-07, Final residual = 1.073716071e-09, No Iterations 74
time step continuity errors : sum local = 2.44302538509e-14, global = 1.47220804914e-20, cumulative = 1.4670919638e-20
DICPCG:  Solving for p, Initial residual = 3.96579008272e-09, Final residual = 3.59004132053e-11, No Iterations 31
time step continuity errors : sum local = 8.59717471397e-16, global = 1.17831864573e-20, cumulative = 2.64541060953e-20
DICPCG:  Solving for p, Initial residual = 1.72282592732e-10, Final residual = 8.91002907783e-13, No Iterations 81
time step continuity errors : sum local = 2.09999388669e-17, global = 4.0222933536e-20, cumulative = 6.66770396313e-20
ExecutionTime = 0.59 s  ClockTime = 26 s

volFieldValue error_velocity_norm write:
    max(region0) of error_velocity_mag = 6.37061867945e-06

volFieldValue L2_error_velocity_norm write:
    sqrt(sum(region0)) of error_velocity_mag_squ = 0.000577254758083

volFieldValue error_pressure_norm write:
    max(region0) of error_pres = 0.000902094388672

Courant Number mean: 0.061898076214 max: 0.0763483592877
Time = 0.01125

PIMPLE: iteration 1
DILUPBiCGStab:  Solving for Ux, Initial residual = 3.54255388859e-06, Final residual = 2.7984620388e-09, No Iterations 1
DILUPBiCGStab:  Solving for Uy, Initial residual = 3.54255388884e-06, Final residual = 2.79846268299e-09, No Iterations 1
DICPCG:  Solving for p, Initial residual = 4.55262304454e-06, Final residual = 4.51366903905e-08, No Iterations 12
time step continuity errors : sum local = 1.10360631312e-12, global = -2.44508072413e-20, cumulative = 4.22262323899e-20
DICPCG:  Solving for p, Initial residual = 1.1281836993e-07, Final residual = 1.10239314892e-09, No Iterations 83
time step continuity errors : sum local = 2.50365322879e-14, global = 1.17774539248e-22, cumulative = 4.23440069292e-20
DICPCG:  Solving for p, Initial residual = 4.08656187592e-09, Final residual = 3.73018753355e-11, No Iterations 31
time step continuity errors : sum local = 8.63712642404e-16, global = 5.77818539189e-20, cumulative = 1.00125860848e-19
DICPCG:  Solving for p, Initial residual = 1.74055473753e-10, Final residual = 8.40558416164e-13, No Iterations 82
time step continuity errors : sum local = 1.99667167469e-17, global = 2.22305606667e-20, cumulative = 1.22356421515e-19
ExecutionTime = 0.83 s  ClockTime = 26 s

volFieldValue error_velocity_norm write:
    max(region0) of error_velocity_mag = 6.37061867945e-06

volFieldValue L2_error_velocity_norm write:
    sqrt(sum(region0)) of error_velocity_mag_squ = 0.000577254758083

volFieldValue error_pressure_norm write:
    max(region0) of error_pres = 0.000902094388672

Courant Number mean: 0.0618980728219 max: 0.0763483561286
Time = 0.015

PIMPLE: iteration 1
DILUPBiCGStab:  Solving for Ux, Initial residual = 3.54229424324e-06, Final residual = 2.79828600517e-09, No Iterations 1
DILUPBiCGStab:  Solving for Uy, Initial residual = 3.54229424341e-06, Final residual = 2.79828665238e-09, No Iterations 1
DICPCG:  Solving for p, Initial residual = 4.5836670931e-06, Final residual = 3.99248187784e-08, No Iterations 17
time step continuity errors : sum local = 1.00169172514e-12, global = 1.8682605544e-20, cumulative = 1.41039027059e-19
DICPCG:  Solving for p, Initial residual = 1.14402740327e-07, Final residual = 1.10174440976e-09, No Iterations 84
time step continuity errors : sum local = 2.50333580494e-14, global = 4.54929489277e-20, cumulative = 1.86531975986e-19
DICPCG:  Solving for p, Initial residual = 4.01434808655e-09, Final residual = 3.56054126821e-11, No Iterations 32
time step continuity errors : sum local = 8.17075227807e-16, global = 6.83878339993e-21, cumulative = 1.93370759386e-19
DICPCG:  Solving for p, Initial residual = 1.73297324073e-10, Final residual = 9.92971557926e-13, No Iterations 82
time step continuity errors : sum local = 2.34562408929e-17, global = -1.25629833335e-21, cumulative = 1.92114461053e-19
ExecutionTime = 1.06 s  ClockTime = 26 s

volFieldValue error_velocity_norm write:
    max(region0) of error_velocity_mag = 6.37061867945e-06

volFieldValue L2_error_velocity_norm write:
    sqrt(sum(region0)) of error_velocity_mag_squ = 0.000577254758083

volFieldValue error_pressure_norm write:
    max(region0) of error_pres = 0.000902094388672

Courant Number mean: 0.0618980683148 max: 0.0763483519479
Time = 0.01875

PIMPLE: iteration 1
DILUPBiCGStab:  Solving for Ux, Initial residual = 3.54188140177e-06, Final residual = 2.79788917951e-09, No Iterations 1
DILUPBiCGStab:  Solving for Uy, Initial residual = 3.54188140171e-06, Final residual = 2.79788982898e-09, No Iterations 1
DICPCG:  Solving for p, Initial residual = 4.61704453159e-06, Final residual = 4.03612199134e-08, No Iterations 18
time step continuity errors : sum local = 1.02901372089e-12, global = 4.54890974784e-21, cumulative = 1.96663370801e-19
DICPCG:  Solving for p, Initial residual = 1.15825705352e-07, Final residual = 9.55959128179e-10, No Iterations 85
time step continuity errors : sum local = 2.17227903683e-14, global = -6.74042303219e-22, cumulative = 1.95989328498e-19
DICPCG:  Solving for p, Initial residual = 4.02401855809e-09, Final residual = 3.32902602544e-11, No Iterations 32
time step continuity errors : sum local = 7.56453815941e-16, global = 8.52495962732e-21, cumulative = 2.04514288125e-19
DICPCG:  Solving for p, Initial residual = 1.72595910943e-10, Final residual = 9.0993477299e-13, No Iterations 85
time step continuity errors : sum local = 2.16029426536e-17, global = 1.93544103039e-20, cumulative = 2.23868698429e-19
ExecutionTime = 1.3 s  ClockTime = 27 s

volFieldValue error_velocity_norm write:
    max(region0) of error_velocity_mag = 6.37061867945e-06

volFieldValue L2_error_velocity_norm write:
    sqrt(sum(region0)) of error_velocity_mag_squ = 0.000577254758083

volFieldValue error_pressure_norm write:
    max(region0) of error_pres = 0.000902094388672

Courant Number mean: 0.0618980626928 max: 0.0763483467983
Time = 0.0225

PIMPLE: iteration 1
DILUPBiCGStab:  Solving for Ux, Initial residual = 3.54131567446e-06, Final residual = 2.79727213048e-09, No Iterations 1
DILUPBiCGStab:  Solving for Uy, Initial residual = 3.54131567446e-06, Final residual = 2.79727278264e-09, No Iterations 1
DICPCG:  Solving for p, Initial residual = 4.65262274938e-06, Final residual = 4.37728968757e-08, No Iterations 19
time step continuity errors : sum local = 1.12131076002e-12, global = -1.04468437987e-21, cumulative = 2.22824014049e-19
DICPCG:  Solving for p, Initial residual = 1.20042189776e-07, Final residual = 9.89076915857e-10, No Iterations 85
time step continuity errors : sum local = 2.24704299424e-14, global = 2.13411678627e-20, cumulative = 2.44165181912e-19
DICPCG:  Solving for p, Initial residual = 4.09191084914e-09, Final residual = 4.07130269237e-11, No Iterations 31
time step continuity errors : sum local = 9.29450835761e-16, global = -3.58785795086e-20, cumulative = 2.08286602403e-19
DICPCG:  Solving for p, Initial residual = 1.79314833455e-10, Final residual = 9.25819561544e-13, No Iterations 86
time step continuity errors : sum local = 2.18843539007e-17, global = -4.82976351134e-21, cumulative = 2.03456838892e-19
ExecutionTime = 1.54 s  ClockTime = 27 s

volFieldValue error_velocity_norm write:
    max(region0) of error_velocity_mag = 6.37061867945e-06

volFieldValue L2_error_velocity_norm write:
    sqrt(sum(region0)) of error_velocity_mag_squ = 0.000577254758083

volFieldValue error_pressure_norm write:
    max(region0) of error_pres = 0.000902094388672

Courant Number mean: 0.0618980559563 max: 0.0763483406758
Time = 0.02625

PIMPLE: iteration 1
DILUPBiCGStab:  Solving for Ux, Initial residual = 3.54059751585e-06, Final residual = 2.79643570224e-09, No Iterations 1
DILUPBiCGStab:  Solving for Uy, Initial residual = 3.54059751584e-06, Final residual = 2.79643635658e-09, No Iterations 1
DICPCG:  Solving for p, Initial residual = 4.69123901546e-06, Final residual = 4.24078452058e-08, No Iterations 20
time step continuity errors : sum local = 1.10878754951e-12, global = 1.35904294809e-20, cumulative = 2.17047268373e-19
DICPCG:  Solving for p, Initial residual = 1.19383701016e-07, Final residual = 9.85074036516e-10, No Iterations 85
time step continuity errors : sum local = 2.23819503676e-14, global = 3.75842526885e-20, cumulative = 2.54631521061e-19
DICPCG:  Solving for p, Initial residual = 4.17063299351e-09, Final residual = 3.92155702585e-11, No Iterations 31
time step continuity errors : sum local = 9.03959927063e-16, global = -4.94302788681e-21, cumulative = 2.49688493174e-19
DICPCG:  Solving for p, Initial residual = 1.80367108692e-10, Final residual = 9.39809699619e-13, No Iterations 86
time step continuity errors : sum local = 2.21695858933e-17, global = 4.19638112859e-20, cumulative = 2.9165230446e-19
ExecutionTime = 1.78 s  ClockTime = 27 s

volFieldValue error_velocity_norm write:
    max(region0) of error_velocity_mag = 6.37061867945e-06

volFieldValue L2_error_velocity_norm write:
    sqrt(sum(region0)) of error_velocity_mag_squ = 0.000577254758083

volFieldValue error_pressure_norm write:
    max(region0) of error_pres = 0.000902094388672

Courant Number mean: 0.0618980481056 max: 0.0763483335959
Time = 0.03

PIMPLE: iteration 1
DILUPBiCGStab:  Solving for Ux, Initial residual = 3.5397275233e-06, Final residual = 2.79538100889e-09, No Iterations 1
DILUPBiCGStab:  Solving for Uy, Initial residual = 3.53972752335e-06, Final residual = 2.79538166618e-09, No Iterations 1
DICPCG:  Solving for p, Initial residual = 4.73159450072e-06, Final residual = 3.94758451024e-08, No Iterations 21
time step continuity errors : sum local = 1.05577629019e-12, global = 3.36555912467e-20, cumulative = 3.25307895707e-19
DICPCG:  Solving for p, Initial residual = 1.19328960015e-07, Final residual = 9.71058442279e-10, No Iterations 85
time step continuity errors : sum local = 2.2067651011e-14, global = 1.50484903102e-20, cumulative = 3.40356386017e-19
DICPCG:  Solving for p, Initial residual = 4.17610803396e-09, Final residual = 3.83181562968e-11, No Iterations 31
time step continuity errors : sum local = 8.72611776639e-16, global = 1.91713285165e-20, cumulative = 3.59527714534e-19
DICPCG:  Solving for p, Initial residual = 1.8107678519e-10, Final residual = 9.36399746561e-13, No Iterations 86
time step continuity errors : sum local = 2.1995298862e-17, global = -5.71433385623e-21, cumulative = 3.53813380677e-19
ExecutionTime = 2.01 s  ClockTime = 27 s

volFieldValue error_velocity_norm write:
    max(region0) of error_velocity_mag = 6.37061867945e-06

volFieldValue L2_error_velocity_norm write:
    sqrt(sum(region0)) of error_velocity_mag_squ = 0.000577254758083

volFieldValue error_pressure_norm write:
    max(region0) of error_pres = 0.000902094388672

Courant Number mean: 0.0618980391411 max: 0.0763483255735
Time = 0.03375

PIMPLE: iteration 1
DILUPBiCGStab:  Solving for Ux, Initial residual = 3.53870643394e-06, Final residual = 2.79410943053e-09, No Iterations 1
DILUPBiCGStab:  Solving for Uy, Initial residual = 3.53870643394e-06, Final residual = 2.79411008975e-09, No Iterations 1
DICPCG:  Solving for p, Initial residual = 4.77305386078e-06, Final residual = 4.43139881485e-08, No Iterations 21
time step continuity errors : sum local = 1.18248169894e-12, global = 2.93723474761e-20, cumulative = 3.83185728154e-19
DICPCG:  Solving for p, Initial residual = 1.23237639656e-07, Final residual = 1.01824149278e-09, No Iterations 85
time step continuity errors : sum local = 2.31400785341e-14, global = 2.5743538636e-20, cumulative = 4.0892926679e-19
DICPCG:  Solving for p, Initial residual = 4.32431935569e-09, Final residual = 4.26748852504e-11, No Iterations 30
time step continuity errors : sum local = 9.69761011524e-16, global = 3.68767507443e-20, cumulative = 4.45806017534e-19
DICPCG:  Solving for p, Initial residual = 1.8755142572e-10, Final residual = 9.53310448806e-13, No Iterations 86
time step continuity errors : sum local = 2.2358948739e-17, global = 3.73567764656e-20, cumulative = 4.83162793999e-19
ExecutionTime = 2.25 s  ClockTime = 28 s

volFieldValue error_velocity_norm write:
    max(region0) of error_velocity_mag = 6.37061867945e-06

volFieldValue L2_error_velocity_norm write:
    sqrt(sum(region0)) of error_velocity_mag_squ = 0.000577254758083

volFieldValue error_pressure_norm write:
    max(region0) of error_pres = 0.000902094388672

Courant Number mean: 0.0618980290632 max: 0.0763483166234
Time = 0.0375

PIMPLE: iteration 1
DILUPBiCGStab:  Solving for Ux, Initial residual = 3.53753512205e-06, Final residual = 2.79262260554e-09, No Iterations 1
DILUPBiCGStab:  Solving for Uy, Initial residual = 3.53753512208e-06, Final residual = 2.79262326719e-09, No Iterations 1
DICPCG:  Solving for p, Initial residual = 4.81562559555e-06, Final residual = 4.61656210661e-08, No Iterations 24
time step continuity errors : sum local = 1.23588235339e-12, global = 1.6575140283e-20, cumulative = 4.99737934282e-19
DICPCG:  Solving for p, Initial residual = 1.1879268958e-07, Final residual = 8.9159510537e-10, No Iterations 85
time step continuity errors : sum local = 2.02773764432e-14, global = 3.83910185051e-20, cumulative = 5.38128952787e-19
DICPCG:  Solving for p, Initial residual = 4.33243438988e-09, Final residual = 4.26919675274e-11, No Iterations 24
time step continuity errors : sum local = 9.69014572767e-16, global = 6.88693844256e-20, cumulative = 6.06998337213e-19
DICPCG:  Solving for p, Initial residual = 1.8929917612e-10, Final residual = 9.85764617753e-13, No Iterations 92
time step continuity errors : sum local = 2.30829915031e-17, global = 3.58795008737e-20, cumulative = 6.42877838087e-19
ExecutionTime = 2.49 s  ClockTime = 28 s

volFieldValue error_velocity_norm write:
    max(region0) of error_velocity_mag = 6.37061867945e-06

volFieldValue L2_error_velocity_norm write:
    sqrt(sum(region0)) of error_velocity_mag_squ = 0.000577254758083

volFieldValue error_pressure_norm write:
    max(region0) of error_pres = 0.000902094388672

Courant Number mean: 0.0618980178723 max: 0.0763483067601
Time = 0.04125

PIMPLE: iteration 1
DILUPBiCGStab:  Solving for Ux, Initial residual = 3.53621459608e-06, Final residual = 2.79092242472e-09, No Iterations 1
DILUPBiCGStab:  Solving for Uy, Initial residual = 3.53621459625e-06, Final residual = 2.79092308941e-09, No Iterations 1
DICPCG:  Solving for p, Initial residual = 4.85906398492e-06, Final residual = 4.15017245192e-08, No Iterations 25
time step continuity errors : sum local = 1.14974174655e-12, global = 2.05001960458e-20, cumulative = 6.63378034133e-19
DICPCG:  Solving for p, Initial residual = 1.11870657225e-07, Final residual = 1.10136148391e-09, No Iterations 84
time step continuity errors : sum local = 2.50448874067e-14, global = 4.32121451269e-20, cumulative = 7.0659017926e-19
DICPCG:  Solving for p, Initial residual = 4.52626287665e-09, Final residual = 4.45984902614e-11, No Iterations 30
time step continuity errors : sum local = 1.03556371082e-15, global = 3.04088684199e-20, cumulative = 7.3699904768e-19
DICPCG:  Solving for p, Initial residual = 1.90998818376e-10, Final residual = 8.79146489655e-13, No Iterations 87
time step continuity errors : sum local = 2.0751947214e-17, global = 3.2250190862e-20, cumulative = 7.69249238542e-19
ExecutionTime = 2.73 s  ClockTime = 28 s

volFieldValue error_velocity_norm write:
    max(region0) of error_velocity_mag = 6.37061867945e-06

volFieldValue L2_error_velocity_norm write:
    sqrt(sum(region0)) of error_velocity_mag_squ = 0.000577254758083

volFieldValue error_pressure_norm write:
    max(region0) of error_pres = 0.000902094388672

Courant Number mean: 0.0618980055692 max: 0.0763482959975
Time = 0.045

PIMPLE: iteration 1
DILUPBiCGStab:  Solving for Ux, Initial residual = 3.5347459926e-06, Final residual = 2.7890110231e-09, No Iterations 1
DILUPBiCGStab:  Solving for Uy, Initial residual = 3.53474599232e-06, Final residual = 2.78901168964e-09, No Iterations 1
DICPCG:  Solving for p, Initial residual = 4.90332992781e-06, Final residual = 4.48959900211e-08, No Iterations 25
time step continuity errors : sum local = 1.24298808913e-12, global = 8.05021439717e-20, cumulative = 8.49751382513e-19
DICPCG:  Solving for p, Initial residual = 1.14792179975e-07, Final residual = 1.13637714617e-09, No Iterations 84
time step continuity errors : sum local = 2.58343484927e-14, global = 6.9703789672e-20, cumulative = 9.19455172185e-19
DICPCG:  Solving for p, Initial residual = 4.65666335934e-09, Final residual = 4.62720686632e-11, No Iterations 26
time step continuity errors : sum local = 1.07324851499e-15, global = 6.2366203269e-20, cumulative = 9.81821375454e-19
DICPCG:  Solving for p, Initial residual = 1.9704866429e-10, Final residual = 9.51860559244e-13, No Iterations 91
time step continuity errors : sum local = 2.23209121308e-17, global = 6.1488085343e-21, cumulative = 9.87970183988e-19
ExecutionTime = 2.98 s  ClockTime = 28 s

volFieldValue error_velocity_norm write:
    max(region0) of error_velocity_mag = 6.37061867945e-06

volFieldValue L2_error_velocity_norm write:
    sqrt(sum(region0)) of error_velocity_mag_squ = 0.000577254758083

volFieldValue error_pressure_norm write:
    max(region0) of error_pres = 0.000902094388672

Courant Number mean: 0.0618979921543 max: 0.0763482843491
Time = 0.04875

PIMPLE: iteration 1
DILUPBiCGStab:  Solving for Ux, Initial residual = 3.53313057643e-06, Final residual = 2.78689078888e-09, No Iterations 1
DILUPBiCGStab:  Solving for Uy, Initial residual = 3.53313057636e-06, Final residual = 2.78689145845e-09, No Iterations 1
DICPCG:  Solving for p, Initial residual = 4.94789390541e-06, Final residual = 4.82559652109e-08, No Iterations 25
time step continuity errors : sum local = 1.33520586133e-12, global = 6.28678161905e-20, cumulative = 1.05083800018e-18
DICPCG:  Solving for p, Initial residual = 1.1787538771e-07, Final residual = 1.16878268748e-09, No Iterations 84
time step continuity errors : sum local = 2.65649191316e-14, global = 8.9807331345e-20, cumulative = 1.14064533152e-18
DICPCG:  Solving for p, Initial residual = 4.78624308919e-09, Final residual = 4.7349498648e-11, No Iterations 25
time step continuity errors : sum local = 1.10327001947e-15, global = 6.7043982694e-20, cumulative = 1.20768931422e-18
DICPCG:  Solving for p, Initial residual = 1.99170184346e-10, Final residual = 9.94594034055e-13, No Iterations 94
time step continuity errors : sum local = 2.3218820313e-17, global = 3.71946945705e-20, cumulative = 1.24488400879e-18
ExecutionTime = 3.21 s  ClockTime = 29 s

volFieldValue error_velocity_norm write:
    max(region0) of error_velocity_mag = 6.37061867945e-06

volFieldValue L2_error_velocity_norm write:
    sqrt(sum(region0)) of error_velocity_mag_squ = 0.000577254758083

volFieldValue error_pressure_norm write:
    max(region0) of error_pres = 0.000902094388672

Courant Number mean: 0.0618979776284 max: 0.0763482718277
Time = 0.0525

PIMPLE: iteration 1
DILUPBiCGStab:  Solving for Ux, Initial residual = 3.53137026311e-06, Final residual = 2.78578449102e-09, No Iterations 1
DILUPBiCGStab:  Solving for Uy, Initial residual = 3.53137026307e-06, Final residual = 2.78578516355e-09, No Iterations 1
DICPCG:  Solving for p, Initial residual = 4.99303332585e-06, Final residual = 4.80619577456e-08, No Iterations 26
time step continuity errors : sum local = 1.34518151266e-12, global = 6.20207637518e-20, cumulative = 1.30690477254e-18
DICPCG:  Solving for p, Initial residual = 1.17474404641e-07, Final residual = 1.08443922137e-09, No Iterations 84
time step continuity errors : sum local = 2.46599197582e-14, global = 6.7763331719e-20, cumulative = 1.37466810426e-18
DICPCG:  Solving for p, Initial residual = 4.81316177474e-09, Final residual = 4.70098736275e-11, No Iterations 24
time step continuity errors : sum local = 1.08718214777e-15, global = 6.64856822217e-20, cumulative = 1.44115378648e-18
DICPCG:  Solving for p, Initial residual = 2.03597973789e-10, Final residual = 9.50581765537e-13, No Iterations 95
time step continuity errors : sum local = 2.23048280704e-17, global = 3.60337702404e-20, cumulative = 1.47718755672e-18
ExecutionTime = 3.45 s  ClockTime = 29 s

volFieldValue error_velocity_norm write:
    max(region0) of error_velocity_mag = 6.37061867945e-06

volFieldValue L2_error_velocity_norm write:
    sqrt(sum(region0)) of error_velocity_mag_squ = 0.000577254758083

volFieldValue error_pressure_norm write:
    max(region0) of error_pres = 0.000902094388672

Courant Number mean: 0.0618979619921 max: 0.0763482584805
Time = 0.05625

PIMPLE: iteration 1
DILUPBiCGStab:  Solving for Ux, Initial residual = 3.52960485335e-06, Final residual = 2.78641925978e-09, No Iterations 1
DILUPBiCGStab:  Solving for Uy, Initial residual = 3.52960485333e-06, Final residual = 2.78641993471e-09, No Iterations 1
DICPCG:  Solving for p, Initial residual = 5.03822368158e-06, Final residual = 4.80856146167e-08, No Iterations 27
time step continuity errors : sum local = 1.35409349958e-12, global = 2.79259397216e-20, cumulative = 1.50511349644e-18
DICPCG:  Solving for p, Initial residual = 1.16722780561e-07, Final residual = 1.11189116851e-09, No Iterations 84
time step continuity errors : sum local = 2.52802401664e-14, global = 9.9949469106e-20, cumulative = 1.60506296555e-18
DICPCG:  Solving for p, Initial residual = 4.88425978085e-09, Final residual = 4.68830676966e-11, No Iterations 24
time step continuity errors : sum local = 1.08071818182e-15, global = 8.1953264169e-20, cumulative = 1.68701622972e-18
DICPCG:  Solving for p, Initial residual = 2.06291529688e-10, Final residual = 9.57064586966e-13, No Iterations 95
time step continuity errors : sum local = 2.24808521879e-17, global = 7.73081797151e-20, cumulative = 1.76432440943e-18
ExecutionTime = 3.69 s  ClockTime = 29 s

volFieldValue error_velocity_norm write:
    max(region0) of error_velocity_mag = 6.37061867945e-06

volFieldValue L2_error_velocity_norm write:
    sqrt(sum(region0)) of error_velocity_mag_squ = 0.000577254758083

volFieldValue error_pressure_norm write:
    max(region0) of error_pres = 0.000902094388672

Courant Number mean: 0.0618979452462 max: 0.0763482444499
Time = 0.06

PIMPLE: iteration 1
DILUPBiCGStab:  Solving for Ux, Initial residual = 3.52779686459e-06, Final residual = 2.78795850685e-09, No Iterations 1
DILUPBiCGStab:  Solving for Uy, Initial residual = 3.52779686438e-06, Final residual = 2.78795918389e-09, No Iterations 1
DICPCG:  Solving for p, Initial residual = 5.08349146344e-06, Final residual = 5.06220744973e-08, No Iterations 27
time step continuity errors : sum local = 1.42617066772e-12, global = 8.87382968741e-20, cumulative = 1.85306270631e-18
DICPCG:  Solving for p, Initial residual = 1.19759133381e-07, Final residual = 1.12475988112e-09, No Iterations 84
time step continuity errors : sum local = 2.5573331638e-14, global = 3.03897771312e-20, cumulative = 1.88345248344e-18
DICPCG:  Solving for p, Initial residual = 4.99845417779e-09, Final residual = 4.81531454151e-11, No Iterations 24
time step continuity errors : sum local = 1.11200641106e-15, global = 8.54195496881e-20, cumulative = 1.96887203313e-18
DICPCG:  Solving for p, Initial residual = 2.10937992461e-10, Final residual = 8.16812852751e-13, No Iterations 96
time step continuity errors : sum local = 1.93575718679e-17, global = 2.13220611799e-20, cumulative = 1.99019409431e-18
ExecutionTime = 3.92 s  ClockTime = 29 s

volFieldValue error_velocity_norm write:
    max(region0) of error_velocity_mag = 6.37061867945e-06

volFieldValue L2_error_velocity_norm write:
    sqrt(sum(region0)) of error_velocity_mag_squ = 0.000577254758083

volFieldValue error_pressure_norm write:
    max(region0) of error_pres = 0.000902094388672

Courant Number mean: 0.0618979273917 max: 0.0763482296334
Time = 0.06375

PIMPLE: iteration 1
DILUPBiCGStab:  Solving for Ux, Initial residual = 3.52591674436e-06, Final residual = 2.79045354174e-09, No Iterations 1
DILUPBiCGStab:  Solving for Uy, Initial residual = 3.52591674417e-06, Final residual = 2.79045422277e-09, No Iterations 1
DICPCG:  Solving for p, Initial residual = 5.12871572766e-06, Final residual = 5.02863268837e-08, No Iterations 35
time step continuity errors : sum local = 1.40710500385e-12, global = 2.22253479456e-20, cumulative = 2.01241944225e-18
DICPCG:  Solving for p, Initial residual = 1.25585345248e-07, Final residual = 1.04847863169e-09, No Iterations 85
time step continuity errors : sum local = 2.38757772987e-14, global = 8.89071884882e-20, cumulative = 2.10132663074e-18
DICPCG:  Solving for p, Initial residual = 4.89990699271e-09, Final residual = 4.53093173571e-11, No Iterations 33
time step continuity errors : sum local = 1.05638133486e-15, global = 9.45800978598e-20, cumulative = 2.1959067286e-18
DICPCG:  Solving for p, Initial residual = 2.06589607158e-10, Final residual = 9.90168248407e-13, No Iterations 89
time step continuity errors : sum local = 2.32741258659e-17, global = 8.7764459618e-20, cumulative = 2.28367118822e-18
ExecutionTime = 4.16 s  ClockTime = 30 s

volFieldValue error_velocity_norm write:
    max(region0) of error_velocity_mag = 6.37061867945e-06

volFieldValue L2_error_velocity_norm write:
    sqrt(sum(region0)) of error_velocity_mag_squ = 0.000577254758083

volFieldValue error_pressure_norm write:
    max(region0) of error_pres = 0.000902094388672

Courant Number mean: 0.0618979084293 max: 0.076348214046
Time = 0.0675

PIMPLE: iteration 1
DILUPBiCGStab:  Solving for Ux, Initial residual = 3.52395385029e-06, Final residual = 2.79349799978e-09, No Iterations 1
DILUPBiCGStab:  Solving for Uy, Initial residual = 3.52395385043e-06, Final residual = 2.79349868361e-09, No Iterations 1
DICPCG:  Solving for p, Initial residual = 5.1738264768e-06, Final residual = 4.97679531673e-08, No Iterations 37
time step continuity errors : sum local = 1.40722030635e-12, global = 1.1576825069e-19, cumulative = 2.39943943891e-18
DICPCG:  Solving for p, Initial residual = 1.25967769219e-07, Final residual = 1.02632142663e-09, No Iterations 85
time step continuity errors : sum local = 2.34054285183e-14, global = 1.13115257953e-19, cumulative = 2.51255469686e-18
DICPCG:  Solving for p, Initial residual = 4.94849226944e-09, Final residual = 4.30850705163e-11, No Iterations 32
time step continuity errors : sum local = 1.01024440889e-15, global = 8.0348212644e-20, cumulative = 2.59290290951e-18
DICPCG:  Solving for p, Initial residual = 2.11552251453e-10, Final residual = 9.25106869216e-13, No Iterations 87
time step continuity errors : sum local = 2.17808255091e-17, global = 1.06375758356e-19, cumulative = 2.69927866786e-18
ExecutionTime = 4.4 s  ClockTime = 30 s

volFieldValue error_velocity_norm write:
    max(region0) of error_velocity_mag = 6.37061867945e-06

volFieldValue L2_error_velocity_norm write:
    sqrt(sum(region0)) of error_velocity_mag_squ = 0.000577254758083

volFieldValue error_pressure_norm write:
    max(region0) of error_pres = 0.000902094388672

Courant Number mean: 0.0618978883599 max: 0.0763481977018
Time = 0.07125

PIMPLE: iteration 1
DILUPBiCGStab:  Solving for Ux, Initial residual = 3.52191905782e-06, Final residual = 2.79642201809e-09, No Iterations 1
DILUPBiCGStab:  Solving for Uy, Initial residual = 3.5219190579e-06, Final residual = 2.79642270305e-09, No Iterations 1
DICPCG:  Solving for p, Initial residual = 5.21892014853e-06, Final residual = 5.18794555944e-08, No Iterations 37
time step continuity errors : sum local = 1.46737596532e-12, global = 1.21533117045e-19, cumulative = 2.82081178491e-18
DICPCG:  Solving for p, Initial residual = 1.2882020248e-07, Final residual = 1.04614881425e-09, No Iterations 85
time step continuity errors : sum local = 2.38571121974e-14, global = 1.05649463862e-19, cumulative = 2.92646124877e-18
DICPCG:  Solving for p, Initial residual = 5.05925590729e-09, Final residual = 4.37111145056e-11, No Iterations 32
time step continuity errors : sum local = 1.02772397029e-15, global = 9.30581250625e-20, cumulative = 3.01951937383e-18
DICPCG:  Solving for p, Initial residual = 2.15516607109e-10, Final residual = 9.44611840096e-13, No Iterations 87
time step continuity errors : sum local = 2.22233793969e-17, global = 7.09436622187e-20, cumulative = 3.09046303605e-18
ExecutionTime = 4.64 s  ClockTime = 30 s

volFieldValue error_velocity_norm write:
    max(region0) of error_velocity_mag = 6.37061867945e-06

volFieldValue L2_error_velocity_norm write:
    sqrt(sum(region0)) of error_velocity_mag_squ = 0.000577254758083

volFieldValue error_pressure_norm write:
    max(region0) of error_pres = 0.000902094388672

Courant Number mean: 0.0618978671846 max: 0.0763481806142
Time = 0.075

PIMPLE: iteration 1
DILUPBiCGStab:  Solving for Ux, Initial residual = 3.51975954053e-06, Final residual = 2.7992343279e-09, No Iterations 1
DILUPBiCGStab:  Solving for Uy, Initial residual = 3.51975954064e-06, Final residual = 2.79923501527e-09, No Iterations 1
DICPCG:  Solving for p, Initial residual = 5.2638719865e-06, Final residual = 4.52644250382e-08, No Iterations 72
time step continuity errors : sum local = 1.03243964742e-12, global = 1.28086798273e-19, cumulative = 3.21854983432e-18
DICPCG:  Solving for p, Initial residual = 1.24417137547e-07, Final residual = 1.20488256374e-09, No Iterations 36
time step continuity errors : sum local = 3.15279740546e-14, global = 1.16599466769e-19, cumulative = 3.33514930109e-18
DICPCG:  Solving for p, Initial residual = 4.3220408622e-09, Final residual = 3.50670482514e-11, No Iterations 73
time step continuity errors : sum local = 8.01813079544e-16, global = 9.5134905467e-20, cumulative = 3.43028420656e-18
DICPCG:  Solving for p, Initial residual = 1.9654104632e-10, Final residual = 9.76478079933e-13, No Iterations 43
time step continuity errors : sum local = 2.53683834568e-17, global = 1.03384642606e-19, cumulative = 3.53366884916e-18
ExecutionTime = 4.87 s  ClockTime = 30 s

volFieldValue error_velocity_norm write:
    max(region0) of error_velocity_mag = 6.37061867945e-06

volFieldValue L2_error_velocity_norm write:
    sqrt(sum(region0)) of error_velocity_mag_squ = 0.000577254758083

volFieldValue error_pressure_norm write:
    max(region0) of error_pres = 0.000902094388672

Courant Number mean: 0.0618978449045 max: 0.0763481627958
Time = 0.07875

PIMPLE: iteration 1
DILUPBiCGStab:  Solving for Ux, Initial residual = 3.51747789442e-06, Final residual = 2.80188288207e-09, No Iterations 1
DILUPBiCGStab:  Solving for Uy, Initial residual = 3.51747789562e-06, Final residual = 2.80188357034e-09, No Iterations 1
DICPCG:  Solving for p, Initial residual = 5.30871449025e-06, Final residual = 4.69870209549e-08, No Iterations 72
time step continuity errors : sum local = 1.07171926849e-12, global = 1.63787280491e-19, cumulative = 3.69745612966e-18
DICPCG:  Solving for p, Initial residual = 1.26965075025e-07, Final residual = 1.22764429426e-09, No Iterations 36
time step continuity errors : sum local = 3.20043962478e-14, global = 1.29889989042e-19, cumulative = 3.8273461187e-18
DICPCG:  Solving for p, Initial residual = 4.39743514629e-09, Final residual = 3.6210211778e-11, No Iterations 73
time step continuity errors : sum local = 8.28088364099e-16, global = 1.57863331038e-19, cumulative = 3.98520944974e-18
DICPCG:  Solving for p, Initial residual = 1.9957179772e-10, Final residual = 9.95554211582e-13, No Iterations 43
time step continuity errors : sum local = 2.57215815695e-17, global = 1.05870813213e-19, cumulative = 4.09108026295e-18
ExecutionTime = 5.12 s  ClockTime = 30 s

volFieldValue error_velocity_norm write:
    max(region0) of error_velocity_mag = 6.37061867945e-06

volFieldValue L2_error_velocity_norm write:
    sqrt(sum(region0)) of error_velocity_mag_squ = 0.000577254758083

volFieldValue error_pressure_norm write:
    max(region0) of error_pres = 0.000902094388672

Courant Number mean: 0.0618978215205 max: 0.0763481442583
Time = 0.0825

PIMPLE: iteration 1
DILUPBiCGStab:  Solving for Ux, Initial residual = 3.51506691286e-06, Final residual = 2.8043982468e-09, No Iterations 1
DILUPBiCGStab:  Solving for Uy, Initial residual = 3.51506691286e-06, Final residual = 2.80439893447e-09, No Iterations 1
DICPCG:  Solving for p, Initial residual = 5.35316437034e-06, Final residual = 4.86615552122e-08, No Iterations 72
time step continuity errors : sum local = 1.10990014613e-12, global = 1.36951957617e-19, cumulative = 4.22803222057e-18
DICPCG:  Solving for p, Initial residual = 1.29536243841e-07, Final residual = 1.24944158416e-09, No Iterations 36
time step continuity errors : sum local = 3.24634176408e-14, global = 1.40619233681e-19, cumulative = 4.36865145425e-18
DICPCG:  Solving for p, Initial residual = 4.47408554794e-09, Final residual = 3.71619653611e-11, No Iterations 73
time step continuity errors : sum local = 8.50055718451e-16, global = 1.04679709785e-19, cumulative = 4.47333116403e-18
DICPCG:  Solving for p, Initial residual = 2.02505244065e-10, Final residual = 8.3909985114e-13, No Iterations 44
time step continuity errors : sum local = 2.23196336929e-17, global = 1.17438382913e-19, cumulative = 4.59076954694e-18
ExecutionTime = 5.35 s  ClockTime = 31 s

volFieldValue error_velocity_norm write:
    max(region0) of error_velocity_mag = 6.37061867945e-06

volFieldValue L2_error_velocity_norm write:
    sqrt(sum(region0)) of error_velocity_mag_squ = 0.000577254758083

volFieldValue error_pressure_norm write:
    max(region0) of error_pres = 0.000902094388672

Courant Number mean: 0.0618977970338 max: 0.0763481250126
Time = 0.08625

PIMPLE: iteration 1
DILUPBiCGStab:  Solving for Ux, Initial residual = 3.51253937331e-06, Final residual = 2.80676820253e-09, No Iterations 1
DILUPBiCGStab:  Solving for Uy, Initial residual = 3.51253937327e-06, Final residual = 2.80676889194e-09, No Iterations 1
DICPCG:  Solving for p, Initial residual = 5.39721564811e-06, Final residual = 5.02393276845e-08, No Iterations 72
time step continuity errors : sum local = 1.14587587621e-12, global = 9.69976171689e-20, cumulative = 4.68776716411e-18
DICPCG:  Solving for p, Initial residual = 1.32088729823e-07, Final residual = 1.270224953e-09, No Iterations 36
time step continuity errors : sum local = 3.29035081139e-14, global = 1.22921207263e-19, cumulative = 4.81068837138e-18
DICPCG:  Solving for p, Initial residual = 4.55211028686e-09, Final residual = 3.84060945767e-11, No Iterations 73
time step continuity errors : sum local = 8.78679926709e-16, global = 1.11362953819e-19, cumulative = 4.9220513252e-18
DICPCG:  Solving for p, Initial residual = 2.05509791104e-10, Final residual = 8.43859868473e-13, No Iterations 44
time step continuity errors : sum local = 2.24739833226e-17, global = 1.46426829256e-19, cumulative = 5.06847815445e-18
ExecutionTime = 5.59 s  ClockTime = 31 s

volFieldValue error_velocity_norm write:
    max(region0) of error_velocity_mag = 6.37061867945e-06

volFieldValue L2_error_velocity_norm write:
    sqrt(sum(region0)) of error_velocity_mag_squ = 0.000577254758083

volFieldValue error_pressure_norm write:
    max(region0) of error_pres = 0.000902094388672

Courant Number mean: 0.0618977714455 max: 0.0763481050685
Time = 0.09

PIMPLE: iteration 1
DILUPBiCGStab:  Solving for Ux, Initial residual = 3.50988555939e-06, Final residual = 2.80896624903e-09, No Iterations 1
DILUPBiCGStab:  Solving for Uy, Initial residual = 3.50988555939e-06, Final residual = 2.80896694028e-09, No Iterations 1
DICPCG:  Solving for p, Initial residual = 5.44088130513e-06, Final residual = 5.18080771896e-08, No Iterations 72
time step continuity errors : sum local = 1.18164111095e-12, global = 1.6921579841e-19, cumulative = 5.23769395286e-18
DICPCG:  Solving for p, Initial residual = 1.34703959777e-07, Final residual = 1.28990274735e-09, No Iterations 36
time step continuity errors : sum local = 3.33228715554e-14, global = 1.15868532323e-19, cumulative = 5.35356248519e-18
DICPCG:  Solving for p, Initial residual = 4.6302899523e-09, Final residual = 4.20805367728e-11, No Iterations 73
time step continuity errors : sum local = 9.62360575559e-16, global = 1.52191378644e-19, cumulative = 5.50575386383e-18
DICPCG:  Solving for p, Initial residual = 2.09555396993e-10, Final residual = 8.48739741091e-13, No Iterations 44
time step continuity errors : sum local = 2.25600371748e-17, global = 1.20216199312e-19, cumulative = 5.62597006314e-18
ExecutionTime = 5.84 s  ClockTime = 31 s

volFieldValue error_velocity_norm write:
    max(region0) of error_velocity_mag = 6.37061867945e-06

volFieldValue L2_error_velocity_norm write:
    sqrt(sum(region0)) of error_velocity_mag_squ = 0.000577254758083

volFieldValue error_pressure_norm write:
    max(region0) of error_pres = 0.000902094388672

Courant Number mean: 0.061897744757 max: 0.0763480844354
Time = 0.09375

PIMPLE: iteration 1
DILUPBiCGStab:  Solving for Ux, Initial residual = 3.50710883982e-06, Final residual = 2.81103317509e-09, No Iterations 1
DILUPBiCGStab:  Solving for Uy, Initial residual = 3.50710883979e-06, Final residual = 2.81103386811e-09, No Iterations 1
DICPCG:  Solving for p, Initial residual = 5.48404754679e-06, Final residual = 5.335436263e-08, No Iterations 72
time step continuity errors : sum local = 1.21689042974e-12, global = 1.2109775434e-19, cumulative = 5.74706781748e-18
DICPCG:  Solving for p, Initial residual = 1.37346173833e-07, Final residual = 1.30847060519e-09, No Iterations 36
time step continuity errors : sum local = 3.37211580211e-14, global = 1.35594598504e-19, cumulative = 5.88266241599e-18
DICPCG:  Solving for p, Initial residual = 4.70827338895e-09, Final residual = 4.3368270211e-11, No Iterations 73
time step continuity errors : sum local = 9.9190146303e-16, global = 1.39405792862e-19, cumulative = 6.02206820885e-18
DICPCG:  Solving for p, Initial residual = 2.12637258582e-10, Final residual = 8.56661774168e-13, No Iterations 44
time step continuity errors : sum local = 2.27902013887e-17, global = 1.2827224663e-19, cumulative = 6.15034045548e-18
ExecutionTime = 6.08 s  ClockTime = 31 s

volFieldValue error_velocity_norm write:
    max(region0) of error_velocity_mag = 6.37061867945e-06

volFieldValue L2_error_velocity_norm write:
    sqrt(sum(region0)) of error_velocity_mag_squ = 0.000577254758083

volFieldValue error_pressure_norm write:
    max(region0) of error_pres = 0.000902094388672

Courant Number mean: 0.0618977169694 max: 0.0763480631213
Time = 0.0975

PIMPLE: iteration 1
DILUPBiCGStab:  Solving for Ux, Initial residual = 3.50422124748e-06, Final residual = 2.81296291078e-09, No Iterations 1
DILUPBiCGStab:  Solving for Uy, Initial residual = 3.5042212475e-06, Final residual = 2.81296360562e-09, No Iterations 1
DICPCG:  Solving for p, Initial residual = 5.5266860807e-06, Final residual = 5.48243804011e-08, No Iterations 72
time step continuity errors : sum local = 1.2504007648e-12, global = 1.13433791307e-19, cumulative = 6.26377424679e-18
DICPCG:  Solving for p, Initial residual = 1.40069270247e-07, Final residual = 1.32449069906e-09, No Iterations 36
time step continuity errors : sum local = 3.40687035225e-14, global = 1.13876840336e-19, cumulative = 6.37765108712e-18
DICPCG:  Solving for p, Initial residual = 4.78510532112e-09, Final residual = 4.11560053906e-11, No Iterations 73
time step continuity errors : sum local = 9.42119256493e-16, global = 1.46375144489e-19, cumulative = 6.52402623161e-18
DICPCG:  Solving for p, Initial residual = 2.14452882121e-10, Final residual = 8.61524192148e-13, No Iterations 44
time step continuity errors : sum local = 2.29303209638e-17, global = 1.02807852837e-19, cumulative = 6.62683408445e-18
ExecutionTime = 6.31 s  ClockTime = 32 s

volFieldValue error_velocity_norm write:
    max(region0) of error_velocity_mag = 6.37061867945e-06

volFieldValue L2_error_velocity_norm write:
    sqrt(sum(region0)) of error_velocity_mag_squ = 0.000577254758083

volFieldValue error_pressure_norm write:
    max(region0) of error_pres = 0.000902094388672

Courant Number mean: 0.0618976880841 max: 0.0763480411336
Time = 0.10125

PIMPLE: iteration 1
DILUPBiCGStab:  Solving for Ux, Initial residual = 3.50121442982e-06, Final residual = 2.81473554985e-09, No Iterations 1
DILUPBiCGStab:  Solving for Uy, Initial residual = 3.50121442981e-06, Final residual = 2.81473624625e-09, No Iterations 1
DICPCG:  Solving for p, Initial residual = 5.56860494955e-06, Final residual = 4.69662958358e-08, No Iterations 73
time step continuity errors : sum local = 1.06915234159e-12, global = 8.6722205079e-20, cumulative = 6.71355628953e-18
DICPCG:  Solving for p, Initial residual = 1.39101596921e-07, Final residual = 1.25662512544e-09, No Iterations 36
time step continuity errors : sum local = 3.31913059191e-14, global = 1.41792702979e-19, cumulative = 6.85534899251e-18
DICPCG:  Solving for p, Initial residual = 4.76535393141e-09, Final residual = 4.39423860048e-11, No Iterations 73
time step continuity errors : sum local = 1.00393982143e-15, global = 1.28284835837e-19, cumulative = 6.98363382834e-18
DICPCG:  Solving for p, Initial residual = 2.19892975571e-10, Final residual = 9.10956282439e-13, No Iterations 45
time step continuity errors : sum local = 2.41421148957e-17, global = 8.43296216476e-20, cumulative = 7.06796344999e-18
ExecutionTime = 6.55 s  ClockTime = 32 s

volFieldValue error_velocity_norm write:
    max(region0) of error_velocity_mag = 6.37061867945e-06

volFieldValue L2_error_velocity_norm write:
    sqrt(sum(region0)) of error_velocity_mag_squ = 0.000577254758083

volFieldValue error_pressure_norm write:
    max(region0) of error_pres = 0.000902094388672

Courant Number mean: 0.0618976581024 max: 0.0763480184788
Time = 0.105

PIMPLE: iteration 1
DILUPBiCGStab:  Solving for Ux, Initial residual = 3.49809078382e-06, Final residual = 2.81635631534e-09, No Iterations 1
DILUPBiCGStab:  Solving for Uy, Initial residual = 3.49809078405e-06, Final residual = 2.81635701349e-09, No Iterations 1
DICPCG:  Solving for p, Initial residual = 5.60984852573e-06, Final residual = 4.82307275476e-08, No Iterations 73
time step continuity errors : sum local = 1.09791064283e-12, global = 1.0644067587e-19, cumulative = 7.17440412586e-18
DICPCG:  Solving for p, Initial residual = 1.41566196888e-07, Final residual = 1.27340147932e-09, No Iterations 36
time step continuity errors : sum local = 3.35820516887e-14, global = 1.08997761458e-19, cumulative = 7.28340188732e-18
DICPCG:  Solving for p, Initial residual = 4.84374762085e-09, Final residual = 4.57031453888e-11, No Iterations 73
time step continuity errors : sum local = 1.04433634604e-15, global = 1.33712247755e-19, cumulative = 7.41711413507e-18
DICPCG:  Solving for p, Initial residual = 2.23303552987e-10, Final residual = 9.25370409871e-13, No Iterations 45
time step continuity errors : sum local = 2.436803779e-17, global = 1.2452788947e-19, cumulative = 7.54164202454e-18
ExecutionTime = 6.79 s  ClockTime = 32 s

volFieldValue error_velocity_norm write:
    max(region0) of error_velocity_mag = 6.37061867945e-06

volFieldValue L2_error_velocity_norm write:
    sqrt(sum(region0)) of error_velocity_mag_squ = 0.000577254758083

volFieldValue error_pressure_norm write:
    max(region0) of error_pres = 0.000902094388672

Courant Number mean: 0.0618976270257 max: 0.0763479951625
Time = 0.10875

PIMPLE: iteration 1
DILUPBiCGStab:  Solving for Ux, Initial residual = 3.49485272685e-06, Final residual = 2.81783891741e-09, No Iterations 1
DILUPBiCGStab:  Solving for Uy, Initial residual = 3.49485272683e-06, Final residual = 2.81783961693e-09, No Iterations 1
DICPCG:  Solving for p, Initial residual = 5.6503655731e-06, Final residual = 4.94820539554e-08, No Iterations 73
time step continuity errors : sum local = 1.12636642845e-12, global = 1.18380314683e-19, cumulative = 7.66002233923e-18
DICPCG:  Solving for p, Initial residual = 1.44073672539e-07, Final residual = 1.28937389419e-09, No Iterations 36
time step continuity errors : sum local = 3.39582528478e-14, global = 1.36406075669e-19, cumulative = 7.79642841489e-18
DICPCG:  Solving for p, Initial residual = 4.92240000947e-09, Final residual = 4.39538988295e-11, No Iterations 74
time step continuity errors : sum local = 1.00120977231e-15, global = 1.00595430675e-19, cumulative = 7.89702384557e-18
DICPCG:  Solving for p, Initial residual = 2.23857336078e-10, Final residual = 9.3777044533e-13, No Iterations 45
time step continuity errors : sum local = 2.4782374013e-17, global = 1.44239259962e-19, cumulative = 8.04126310553e-18
ExecutionTime = 7.04 s  ClockTime = 32 s

volFieldValue error_velocity_norm write:
    max(region0) of error_velocity_mag = 6.37061867945e-06

volFieldValue L2_error_velocity_norm write:
    sqrt(sum(region0)) of error_velocity_mag_squ = 0.000577254758083

volFieldValue error_pressure_norm write:
    max(region0) of error_pres = 0.000902094388672

Courant Number mean: 0.0618975948554 max: 0.0763479711894
Time = 0.1125

PIMPLE: iteration 1
DILUPBiCGStab:  Solving for Ux, Initial residual = 3.49150968611e-06, Final residual = 2.81921008371e-09, No Iterations 1
DILUPBiCGStab:  Solving for Uy, Initial residual = 3.49150968616e-06, Final residual = 2.81921078494e-09, No Iterations 1
DICPCG:  Solving for p, Initial residual = 5.69029748611e-06, Final residual = 5.07059625331e-08, No Iterations 73
time step continuity errors : sum local = 1.15419950105e-12, global = 1.01236689355e-19, cumulative = 8.14249979489e-18
DICPCG:  Solving for p, Initial residual = 1.46625169541e-07, Final residual = 1.30433968047e-09, No Iterations 36
time step continuity errors : sum local = 3.43156022813e-14, global = 1.48404963187e-19, cumulative = 8.29090475807e-18
DICPCG:  Solving for p, Initial residual = 5.00125852036e-09, Final residual = 4.50686094228e-11, No Iterations 74
time step continuity errors : sum local = 1.0266960331e-15, global = 1.58000040031e-19, cumulative = 8.4489047981e-18
DICPCG:  Solving for p, Initial residual = 2.27127774873e-10, Final residual = 9.48241810224e-13, No Iterations 45
time step continuity errors : sum local = 2.50569240003e-17, global = 6.92029994802e-20, cumulative = 8.51810779758e-18
ExecutionTime = 7.27 s  ClockTime = 33 s

volFieldValue error_velocity_norm write:
    max(region0) of error_velocity_mag = 6.37061867945e-06

volFieldValue L2_error_velocity_norm write:
    sqrt(sum(region0)) of error_velocity_mag_squ = 0.000577254758083

volFieldValue error_pressure_norm write:
    max(region0) of error_pres = 0.000902094388672

Courant Number mean: 0.061897561593 max: 0.0763479465635
Time = 0.11625

PIMPLE: iteration 1
DILUPBiCGStab:  Solving for Ux, Initial residual = 3.48806018967e-06, Final residual = 2.82044385078e-09, No Iterations 1
DILUPBiCGStab:  Solving for Uy, Initial residual = 3.48806018967e-06, Final residual = 2.82044455344e-09, No Iterations 1
DICPCG:  Solving for p, Initial residual = 5.72987216967e-06, Final residual = 5.18481873245e-08, No Iterations 73
time step continuity errors : sum local = 1.18016673067e-12, global = 1.11769453373e-19, cumulative = 8.62987725096e-18
DICPCG:  Solving for p, Initial residual = 1.49058424691e-07, Final residual = 1.31900761005e-09, No Iterations 36
time step continuity errors : sum local = 3.46690330345e-14, global = 1.11478449094e-19, cumulative = 8.74135570005e-18
DICPCG:  Solving for p, Initial residual = 5.0811210011e-09, Final residual = 5.05679927976e-11, No Iterations 73
time step continuity errors : sum local = 1.15372398433e-15, global = 1.27830639642e-19, cumulative = 8.86918633969e-18
DICPCG:  Solving for p, Initial residual = 2.33301004523e-10, Final residual = 9.67364296355e-13, No Iterations 45
time step continuity errors : sum local = 2.54416896756e-17, global = 7.52800966094e-20, cumulative = 8.9444664363e-18
ExecutionTime = 7.52 s  ClockTime = 33 s

volFieldValue error_velocity_norm write:
    max(region0) of error_velocity_mag = 6.37061867945e-06

volFieldValue L2_error_velocity_norm write:
    sqrt(sum(region0)) of error_velocity_mag_squ = 0.000577254758083

volFieldValue error_pressure_norm write:
    max(region0) of error_pres = 0.000902094388672

Courant Number mean: 0.06189752724 max: 0.0763479212878
Time = 0.12

PIMPLE: iteration 1
DILUPBiCGStab:  Solving for Ux, Initial residual = 3.48450361825e-06, Final residual = 2.82154383131e-09, No Iterations 1
DILUPBiCGStab:  Solving for Uy, Initial residual = 3.48450361824e-06, Final residual = 2.8215445354e-09, No Iterations 1
DICPCG:  Solving for p, Initial residual = 5.7688727549e-06, Final residual = 5.29481804841e-08, No Iterations 73
time step continuity errors : sum local = 1.20518680485e-12, global = 1.30134828891e-19, cumulative = 9.07460126519e-18
DICPCG:  Solving for p, Initial residual = 1.51618109723e-07, Final residual = 1.33244640848e-09, No Iterations 36
time step continuity errors : sum local = 3.50002904568e-14, global = 8.65601304144e-20, cumulative = 9.16116139561e-18
DICPCG:  Solving for p, Initial residual = 5.16015269657e-09, Final residual = 4.91770361614e-11, No Iterations 73
time step continuity errors : sum local = 1.12346037278e-15, global = 1.72688525975e-19, cumulative = 9.33384992158e-18
DICPCG:  Solving for p, Initial residual = 2.36103973178e-10, Final residual = 9.75557969999e-13, No Iterations 45
time step continuity errors : sum local = 2.57155340465e-17, global = 1.87634897093e-19, cumulative = 9.52148481868e-18
ExecutionTime = 7.76 s  ClockTime = 33 s

volFieldValue error_velocity_norm write:
    max(region0) of error_velocity_mag = 6.37061867945e-06

volFieldValue L2_error_velocity_norm write:
    sqrt(sum(region0)) of error_velocity_mag_squ = 0.000577254758083

volFieldValue error_pressure_norm write:
    max(region0) of error_pres = 0.000902094388672

Courant Number mean: 0.0618974917979 max: 0.0763478953645
Time = 0.12375

PIMPLE: iteration 1
DILUPBiCGStab:  Solving for Ux, Initial residual = 3.48084240664e-06, Final residual = 2.82251471427e-09, No Iterations 1
DILUPBiCGStab:  Solving for Uy, Initial residual = 3.48084240667e-06, Final residual = 2.82251541993e-09, No Iterations 1
DICPCG:  Solving for p, Initial residual = 5.80707764675e-06, Final residual = 5.40939649886e-08, No Iterations 73
time step continuity errors : sum local = 1.23122018998e-12, global = 1.38400509882e-19, cumulative = 9.65988532856e-18
DICPCG:  Solving for p, Initial residual = 1.5413554495e-07, Final residual = 1.34675099287e-09, No Iterations 36
time step continuity errors : sum local = 3.53508707328e-14, global = 1.53768231715e-19, cumulative = 9.81365356027e-18
DICPCG:  Solving for p, Initial residual = 5.24319578014e-09, Final residual = 4.79921483726e-11, No Iterations 74
time step continuity errors : sum local = 1.09361366153e-15, global = 1.49649186424e-19, cumulative = 9.9633027467e-18
DICPCG:  Solving for p, Initial residual = 2.36760380362e-10, Final residual = 9.76049799431e-13, No Iterations 45
time step continuity errors : sum local = 2.58058209252e-17, global = 9.39222155014e-20, cumulative = 1.00572249622e-17
ExecutionTime = 7.99 s  ClockTime = 33 s

volFieldValue error_velocity_norm write:
    max(region0) of error_velocity_mag = 6.37061867945e-06

volFieldValue L2_error_velocity_norm write:
    sqrt(sum(region0)) of error_velocity_mag_squ = 0.000577254758083

volFieldValue error_pressure_norm write:
    max(region0) of error_pres = 0.000902094388672

Courant Number mean: 0.0618974552683 max: 0.0763478687953
Time = 0.1275

PIMPLE: iteration 1
DILUPBiCGStab:  Solving for Ux, Initial residual = 3.47707898063e-06, Final residual = 2.82336097694e-09, No Iterations 1
DILUPBiCGStab:  Solving for Uy, Initial residual = 3.47707898063e-06, Final residual = 2.82336168373e-09, No Iterations 1
DICPCG:  Solving for p, Initial residual = 5.84455161038e-06, Final residual = 5.51285394986e-08, No Iterations 73
time step continuity errors : sum local = 1.25473597086e-12, global = 1.74711494993e-19, cumulative = 1.02319364572e-17
DICPCG:  Solving for p, Initial residual = 1.56641947064e-07, Final residual = 1.35980574685e-09, No Iterations 36
time step continuity errors : sum local = 3.56783740396e-14, global = 1.32935997618e-19, cumulative = 1.03648724548e-17
DICPCG:  Solving for p, Initial residual = 5.32679519292e-09, Final residual = 5.16351829336e-11, No Iterations 73
time step continuity errors : sum local = 1.18011058616e-15, global = 1.83774741364e-19, cumulative = 1.05486471962e-17
DICPCG:  Solving for p, Initial residual = 2.42847788902e-10, Final residual = 8.50416375186e-13, No Iterations 46
time step continuity errors : sum local = 2.30428381062e-17, global = 1.56373077892e-19, cumulative = 1.07050202741e-17
ExecutionTime = 8.23 s  ClockTime = 34 s

volFieldValue error_velocity_norm write:
    max(region0) of error_velocity_mag = 6.37061867945e-06

volFieldValue L2_error_velocity_norm write:
    sqrt(sum(region0)) of error_velocity_mag_squ = 0.000577254758083

volFieldValue error_pressure_norm write:
    max(region0) of error_pres = 0.000902094388672

Courant Number mean: 0.0618974176529 max: 0.0763478415807
Time = 0.13125

PIMPLE: iteration 1
DILUPBiCGStab:  Solving for Ux, Initial residual = 3.47321575206e-06, Final residual = 2.82408708263e-09, No Iterations 1
DILUPBiCGStab:  Solving for Uy, Initial residual = 3.47321575203e-06, Final residual = 2.82408779068e-09, No Iterations 1
DICPCG:  Solving for p, Initial residual = 5.88114812059e-06, Final residual = 5.6159809001e-08, No Iterations 73
time step continuity errors : sum local = 1.27817353974e-12, global = 1.37742858848e-19, cumulative = 1.08427631329e-17
DICPCG:  Solving for p, Initial residual = 1.59164265673e-07, Final residual = 1.37224499734e-09, No Iterations 36
time step continuity errors : sum local = 3.59950796341e-14, global = 1.31170741063e-19, cumulative = 1.0973933874e-17
DICPCG:  Solving for p, Initial residual = 5.41005374505e-09, Final residual = 5.18768099915e-11, No Iterations 73
time step continuity errors : sum local = 1.18516097665e-15, global = 1.7248311937e-19, cumulative = 1.11464169933e-17
DICPCG:  Solving for p, Initial residual = 2.45816903388e-10, Final residual = 8.61357877116e-13, No Iterations 46
time step continuity errors : sum local = 2.34013987412e-17, global = 1.75567838553e-19, cumulative = 1.13219848319e-17
ExecutionTime = 8.48 s  ClockTime = 34 s

volFieldValue error_velocity_norm write:
    max(region0) of error_velocity_mag = 6.37061867945e-06

volFieldValue L2_error_velocity_norm write:
    sqrt(sum(region0)) of error_velocity_mag_squ = 0.000577254758083

volFieldValue error_pressure_norm write:
    max(region0) of error_pres = 0.000902094388672

Courant Number mean: 0.0618973789532 max: 0.0763478137208
Time = 0.135

PIMPLE: iteration 1
DILUPBiCGStab:  Solving for Ux, Initial residual = 3.4692551142e-06, Final residual = 2.82470653379e-09, No Iterations 1
DILUPBiCGStab:  Solving for Uy, Initial residual = 3.46925511424e-06, Final residual = 2.8247072434e-09, No Iterations 1
DICPCG:  Solving for p, Initial residual = 5.91694596032e-06, Final residual = 5.71518020978e-08, No Iterations 73
time step continuity errors : sum local = 1.30072234341e-12, global = 1.35495387937e-19, cumulative = 1.14574802198e-17
DICPCG:  Solving for p, Initial residual = 1.61697112735e-07, Final residual = 1.38376090881e-09, No Iterations 36
time step continuity errors : sum local = 3.62945660312e-14, global = 1.2806471583e-19, cumulative = 1.15855449357e-17
DICPCG:  Solving for p, Initial residual = 5.49318745825e-09, Final residual = 5.29456422964e-11, No Iterations 73
time step continuity errors : sum local = 1.20850592725e-15, global = 2.11487753867e-19, cumulative = 1.17970326895e-17
DICPCG:  Solving for p, Initial residual = 2.49145777118e-10, Final residual = 8.66866008087e-13, No Iterations 46
time step continuity errors : sum local = 2.34874135987e-17, global = 1.74887112189e-19, cumulative = 1.19719198017e-17
ExecutionTime = 8.71 s  ClockTime = 34 s

volFieldValue error_velocity_norm write:
    max(region0) of error_velocity_mag = 6.37061867945e-06

volFieldValue L2_error_velocity_norm write:
    sqrt(sum(region0)) of error_velocity_mag_squ = 0.000577254758083

volFieldValue error_pressure_norm write:
    max(region0) of error_pres = 0.000902094388672

Courant Number mean: 0.0618973391709 max: 0.0763477852148
Time = 0.13875

PIMPLE: iteration 1
DILUPBiCGStab:  Solving for Ux, Initial residual = 3.46520603016e-06, Final residual = 2.8252318275e-09, No Iterations 1
DILUPBiCGStab:  Solving for Uy, Initial residual = 3.46520603019e-06, Final residual = 2.8252325384e-09, No Iterations 1
DICPCG:  Solving for p, Initial residual = 5.95189175441e-06, Final residual = 5.80761232378e-08, No Iterations 73
time step continuity errors : sum local = 1.32172050002e-12, global = 1.42346945523e-19, cumulative = 1.21142667472e-17
DICPCG:  Solving for p, Initial residual = 1.64157781607e-07, Final residual = 1.39514763752e-09, No Iterations 36
time step continuity errors : sum local = 3.65925989102e-14, global = 1.21731168064e-19, cumulative = 1.22359979153e-17
DICPCG:  Solving for p, Initial residual = 5.57717909373e-09, Final residual = 5.55121946039e-11, No Iterations 73
time step continuity errors : sum local = 1.26845032371e-15, global = 1.58480962993e-19, cumulative = 1.23944788783e-17
DICPCG:  Solving for p, Initial residual = 2.53181804325e-10, Final residual = 8.86405290379e-13, No Iterations 46
time step continuity errors : sum local = 2.40441401072e-17, global = 1.58049089596e-19, cumulative = 1.25525279679e-17
ExecutionTime = 8.96 s  ClockTime = 34 s

volFieldValue error_velocity_norm write:
    max(region0) of error_velocity_mag = 6.37061867945e-06

volFieldValue L2_error_velocity_norm write:
    sqrt(sum(region0)) of error_velocity_mag_squ = 0.000577254758083

volFieldValue error_pressure_norm write:
    max(region0) of error_pres = 0.000902094388672

Courant Number mean: 0.0618972983078 max: 0.0763477560614
Time = 0.1425

PIMPLE: iteration 1
DILUPBiCGStab:  Solving for Ux, Initial residual = 3.46106582063e-06, Final residual = 2.82564990256e-09, No Iterations 1
DILUPBiCGStab:  Solving for Uy, Initial residual = 3.46106582067e-06, Final residual = 2.82565061474e-09, No Iterations 1
DICPCG:  Solving for p, Initial residual = 5.98606974306e-06, Final residual = 5.90017663569e-08, No Iterations 73
time step continuity errors : sum local = 1.34275231755e-12, global = 1.52373339041e-19, cumulative = 1.27049013069e-17
DICPCG:  Solving for p, Initial residual = 1.66699543063e-07, Final residual = 1.40569055515e-09, No Iterations 36
time step continuity errors : sum local = 3.6875200057e-14, global = 1.39786303159e-19, cumulative = 1.28446876101e-17
DICPCG:  Solving for p, Initial residual = 5.66104098857e-09, Final residual = 5.15403185239e-11, No Iterations 74
time step continuity errors : sum local = 1.17481093111e-15, global = 1.94010183463e-19, cumulative = 1.30386977936e-17
DICPCG:  Solving for p, Initial residual = 2.52619047082e-10, Final residual = 8.6980011549e-13, No Iterations 46
time step continuity errors : sum local = 2.37170767523e-17, global = 1.62780640249e-19, cumulative = 1.32014784338e-17
ExecutionTime = 9.2 s  ClockTime = 35 s

volFieldValue error_velocity_norm write:
    max(region0) of error_velocity_mag = 6.37061867945e-06

volFieldValue L2_error_velocity_norm write:
    sqrt(sum(region0)) of error_velocity_mag_squ = 0.000577254758083

volFieldValue error_pressure_norm write:
    max(region0) of error_pres = 0.000902094388672

Courant Number mean: 0.0618972563655 max: 0.0763477262584
Time = 0.14625

PIMPLE: iteration 1
DILUPBiCGStab:  Solving for Ux, Initial residual = 3.4568686887e-06, Final residual = 2.8259648491e-09, No Iterations 1
DILUPBiCGStab:  Solving for Uy, Initial residual = 3.45686868869e-06, Final residual = 2.82596556253e-09, No Iterations 1
DICPCG:  Solving for p, Initial residual = 6.0193746646e-06, Final residual = 5.98390738921e-08, No Iterations 73
time step continuity errors : sum local = 1.36177559606e-12, global = 1.71323640756e-19, cumulative = 1.33728020746e-17
DICPCG:  Solving for p, Initial residual = 1.69221041999e-07, Final residual = 1.41559475854e-09, No Iterations 36
time step continuity errors : sum local = 3.71461000196e-14, global = 1.61064708597e-19, cumulative = 1.35338667832e-17
DICPCG:  Solving for p, Initial residual = 5.74465533773e-09, Final residual = 5.2288592435e-11, No Iterations 74
time step continuity errors : sum local = 1.19191745831e-15, global = 1.34845639287e-19, cumulative = 1.36687124224e-17
DICPCG:  Solving for p, Initial residual = 2.55787657797e-10, Final residual = 8.74427007138e-13, No Iterations 46
time step continuity errors : sum local = 2.38167289147e-17, global = 1.94223324586e-19, cumulative = 1.3862935747e-17
ExecutionTime = 9.44 s  ClockTime = 35 s

volFieldValue error_velocity_norm write:
    max(region0) of error_velocity_mag = 6.37061867945e-06

volFieldValue L2_error_velocity_norm write:
    sqrt(sum(region0)) of error_velocity_mag_squ = 0.000577254758083

volFieldValue error_pressure_norm write:
    max(region0) of error_pres = 0.000902094388672

Courant Number mean: 0.0618972133459 max: 0.0763476958033
Time = 0.15

PIMPLE: iteration 1
DILUPBiCGStab:  Solving for Ux, Initial residual = 3.45265822945e-06, Final residual = 2.82618066548e-09, No Iterations 1
DILUPBiCGStab:  Solving for Uy, Initial residual = 3.45265822941e-06, Final residual = 2.82618138011e-09, No Iterations 1
DICPCG:  Solving for p, Initial residual = 6.05208367068e-06, Final residual = 4.36808563817e-08, No Iterations 74
time step continuity errors : sum local = 9.96091716473e-13, global = 1.7194858266e-19, cumulative = 1.40348843297e-17
DICPCG:  Solving for p, Initial residual = 1.62505265877e-07, Final residual = 1.38216332268e-09, No Iterations 36
time step continuity errors : sum local = 3.69774052401e-14, global = 1.49434218492e-19, cumulative = 1.41843185482e-17
DICPCG:  Solving for p, Initial residual = 5.70541511436e-09, Final residual = 4.97451410741e-11, No Iterations 74
time step continuity errors : sum local = 1.13361234823e-15, global = 1.4295764219e-19, cumulative = 1.43272761904e-17
DICPCG:  Solving for p, Initial residual = 2.59984075053e-10, Final residual = 9.96044528663e-13, No Iterations 45
time step continuity errors : sum local = 2.65835588506e-17, global = 1.66586313943e-19, cumulative = 1.44938625043e-17
ExecutionTime = 9.68 s  ClockTime = 35 s

volFieldValue error_velocity_norm write:
    max(region0) of error_velocity_mag = 6.37061867945e-06

volFieldValue L2_error_velocity_norm write:
    sqrt(sum(region0)) of error_velocity_mag_squ = 0.000577254758083

volFieldValue error_pressure_norm write:
    max(region0) of error_pres = 0.000902094388672

Courant Number mean: 0.0618971692508 max: 0.0763476646926
Time = 0.15375

PIMPLE: iteration 1
DILUPBiCGStab:  Solving for Ux, Initial residual = 3.44839942517e-06, Final residual = 2.82630126889e-09, No Iterations 1
DILUPBiCGStab:  Solving for Uy, Initial residual = 3.44839942562e-06, Final residual = 2.82630198514e-09, No Iterations 1
DICPCG:  Solving for p, Initial residual = 6.08428632657e-06, Final residual = 4.40439074836e-08, No Iterations 74
time step continuity errors : sum local = 1.0043755302e-12, global = 1.38892211989e-19, cumulative = 1.46327547163e-17
DICPCG:  Solving for p, Initial residual = 1.64745881593e-07, Final residual = 1.39321787742e-09, No Iterations 36
time step continuity errors : sum local = 3.72882299265e-14, global = 1.62461035697e-19, cumulative = 1.4795215752e-17
DICPCG:  Solving for p, Initial residual = 5.7897120431e-09, Final residual = 5.4768435812e-11, No Iterations 73
time step continuity errors : sum local = 1.25008614175e-15, global = 1.86861955894e-19, cumulative = 1.49820777079e-17
DICPCG:  Solving for p, Initial residual = 2.6602971727e-10, Final residual = 9.53963712157e-13, No Iterations 46
time step continuity errors : sum local = 2.5794062911e-17, global = 1.22662120921e-19, cumulative = 1.51047398288e-17
ExecutionTime = 9.92 s  ClockTime = 35 s

volFieldValue error_velocity_norm write:
    max(region0) of error_velocity_mag = 6.37061867945e-06

volFieldValue L2_error_velocity_norm write:
    sqrt(sum(region0)) of error_velocity_mag_squ = 0.000577254758083

volFieldValue error_pressure_norm write:
    max(region0) of error_pres = 0.000902094388672

Courant Number mean: 0.0618971240819 max: 0.0763476329227
Time = 0.1575

PIMPLE: iteration 1
DILUPBiCGStab:  Solving for Ux, Initial residual = 3.44408971236e-06, Final residual = 2.82633039118e-09, No Iterations 1
DILUPBiCGStab:  Solving for Uy, Initial residual = 3.44408971227e-06, Final residual = 2.82633110796e-09, No Iterations 1
DICPCG:  Solving for p, Initial residual = 6.11568964585e-06, Final residual = 4.437500033e-08, No Iterations 74
time step continuity errors : sum local = 1.01193013262e-12, global = 1.45558779822e-19, cumulative = 1.52502986086e-17
DICPCG:  Solving for p, Initial residual = 1.67008066092e-07, Final residual = 1.40391758911e-09, No Iterations 36
time step continuity errors : sum local = 3.75929091796e-14, global = 1.09049816085e-19, cumulative = 1.53593484247e-17
DICPCG:  Solving for p, Initial residual = 5.87347182231e-09, Final residual = 5.51631982218e-11, No Iterations 73
time step continuity errors : sum local = 1.25905423311e-15, global = 1.752574355e-19, cumulative = 1.55346058602e-17
DICPCG:  Solving for p, Initial residual = 2.69246092723e-10, Final residual = 9.6445773752e-13, No Iterations 46
time step continuity errors : sum local = 2.60271051846e-17, global = 1.77243925374e-19, cumulative = 1.57118497856e-17
ExecutionTime = 10.17 s  ClockTime = 36 s

volFieldValue error_velocity_norm write:
    max(region0) of error_velocity_mag = 6.37061867945e-06

volFieldValue L2_error_velocity_norm write:
    sqrt(sum(region0)) of error_velocity_mag_squ = 0.000577254758083

volFieldValue error_pressure_norm write:
    max(region0) of error_pres = 0.000902094388672

Courant Number mean: 0.0618970778411 max: 0.0763476004891
Time = 0.16125

PIMPLE: iteration 1
DILUPBiCGStab:  Solving for Ux, Initial residual = 3.43971063056e-06, Final residual = 2.82627169517e-09, No Iterations 1
DILUPBiCGStab:  Solving for Uy, Initial residual = 3.43971063055e-06, Final residual = 2.82627241322e-09, No Iterations 1
DICPCG:  Solving for p, Initial residual = 6.14634397558e-06, Final residual = 4.46798305846e-08, No Iterations 74
time step continuity errors : sum local = 1.01888508198e-12, global = 1.7232619487e-19, cumulative = 1.58841759805e-17
DICPCG:  Solving for p, Initial residual = 1.69293162062e-07, Final residual = 1.4141377534e-09, No Iterations 36
time step continuity errors : sum local = 3.78888635171e-14, global = 1.64459368952e-19, cumulative = 1.60486353494e-17
DICPCG:  Solving for p, Initial residual = 5.95691989164e-09, Final residual = 5.65018502686e-11, No Iterations 73
time step continuity errors : sum local = 1.28932145868e-15, global = 1.41908006643e-19, cumulative = 1.61905433561e-17
DICPCG:  Solving for p, Initial residual = 2.72969015649e-10, Final residual = 9.82330444542e-13, No Iterations 46
time step continuity errors : sum local = 2.64867992722e-17, global = 1.7034199985e-19, cumulative = 1.63608853559e-17
ExecutionTime = 10.4 s  ClockTime = 36 s

volFieldValue error_velocity_norm write:
    max(region0) of error_velocity_mag = 6.37061867945e-06

volFieldValue L2_error_velocity_norm write:
    sqrt(sum(region0)) of error_velocity_mag_squ = 0.000577254758083

volFieldValue error_pressure_norm write:
    max(region0) of error_pres = 0.000902094388672

Courant Number mean: 0.0618970305303 max: 0.0763475680677
Time = 0.165

PIMPLE: iteration 1
DILUPBiCGStab:  Solving for Ux, Initial residual = 3.43528030463e-06, Final residual = 2.82612968063e-09, No Iterations 1
DILUPBiCGStab:  Solving for Uy, Initial residual = 3.43528030461e-06, Final residual = 2.82613039969e-09, No Iterations 1
DICPCG:  Solving for p, Initial residual = 6.17615619181e-06, Final residual = 4.49282426737e-08, No Iterations 74
time step continuity errors : sum local = 1.02455478941e-12, global = 1.05628387883e-19, cumulative = 1.64665137438e-17
DICPCG:  Solving for p, Initial residual = 1.71572219482e-07, Final residual = 1.42389280335e-09, No Iterations 36
time step continuity errors : sum local = 3.81760797902e-14, global = 1.16783644959e-19, cumulative = 1.65832973888e-17
DICPCG:  Solving for p, Initial residual = 6.03984278025e-09, Final residual = 5.79943332008e-11, No Iterations 73
time step continuity errors : sum local = 1.32284059987e-15, global = 1.2738534785e-19, cumulative = 1.67106827366e-17
DICPCG:  Solving for p, Initial residual = 2.76981546341e-10, Final residual = 9.76170656149e-13, No Iterations 46
time step continuity errors : sum local = 2.63473738773e-17, global = 1.27172415183e-19, cumulative = 1.68378551518e-17
ExecutionTime = 10.66 s  ClockTime = 36 s

volFieldValue error_velocity_norm write:
    max(region0) of error_velocity_mag = 6.37061867945e-06

volFieldValue L2_error_velocity_norm write:
    sqrt(sum(region0)) of error_velocity_mag_squ = 0.000577254758083

volFieldValue error_pressure_norm write:
    max(region0) of error_pres = 0.000902094388672

Courant Number mean: 0.0618969821514 max: 0.0763475350519
Time = 0.16875

PIMPLE: iteration 1
DILUPBiCGStab:  Solving for Ux, Initial residual = 3.43078191825e-06, Final residual = 2.82591165698e-09, No Iterations 1
DILUPBiCGStab:  Solving for Uy, Initial residual = 3.43078191822e-06, Final residual = 2.82591237717e-09, No Iterations 1
DICPCG:  Solving for p, Initial residual = 6.20510466077e-06, Final residual = 4.52039748859e-08, No Iterations 74
time step continuity errors : sum local = 1.03084310747e-12, global = 1.13601286559e-19, cumulative = 1.69514564383e-17
DICPCG:  Solving for p, Initial residual = 1.7390532085e-07, Final residual = 1.43338845256e-09, No Iterations 36
time step continuity errors : sum local = 3.84590607956e-14, global = 1.04147247206e-19, cumulative = 1.70556036856e-17
DICPCG:  Solving for p, Initial residual = 6.12264473923e-09, Final residual = 6.00504863106e-11, No Iterations 73
time step continuity errors : sum local = 1.36981314955e-15, global = 1.31224764525e-19, cumulative = 1.71868284501e-17
DICPCG:  Solving for p, Initial residual = 2.81025689457e-10, Final residual = 9.21537033931e-13, No Iterations 47
time step continuity errors : sum local = 2.52348677e-17, global = 8.14155937191e-20, cumulative = 1.72682440438e-17
ExecutionTime = 10.91 s  ClockTime = 36 s

volFieldValue error_velocity_norm write:
    max(region0) of error_velocity_mag = 6.37061867945e-06

volFieldValue L2_error_velocity_norm write:
    sqrt(sum(region0)) of error_velocity_mag_squ = 0.000577254758083

volFieldValue error_pressure_norm write:
    max(region0) of error_pres = 0.000902094388672

Courant Number mean: 0.0618969327063 max: 0.0763475014219
Time = 0.1725

PIMPLE: iteration 1
DILUPBiCGStab:  Solving for Ux, Initial residual = 3.42622213525e-06, Final residual = 2.82561895134e-09, No Iterations 1
DILUPBiCGStab:  Solving for Uy, Initial residual = 3.42622213509e-06, Final residual = 2.82561967258e-09, No Iterations 1
DICPCG:  Solving for p, Initial residual = 6.23334126033e-06, Final residual = 4.54231102565e-08, No Iterations 74
time step continuity errors : sum local = 1.03584248827e-12, global = 1.11827404885e-19, cumulative = 1.73800714487e-17
DICPCG:  Solving for p, Initial residual = 1.76217478659e-07, Final residual = 1.44236153194e-09, No Iterations 36
time step continuity errors : sum local = 3.87318149612e-14, global = 1.4612973571e-19, cumulative = 1.75262011844e-17
DICPCG:  Solving for p, Initial residual = 6.20502542682e-09, Final residual = 6.13732948481e-11, No Iterations 73
time step continuity errors : sum local = 1.39966976202e-15, global = 1.13764083448e-19, cumulative = 1.76399652678e-17
DICPCG:  Solving for p, Initial residual = 2.84854360321e-10, Final residual = 9.33896417542e-13, No Iterations 47
time step continuity errors : sum local = 2.56380612377e-17, global = 1.26157708399e-19, cumulative = 1.77661229762e-17
ExecutionTime = 11.15 s  ClockTime = 37 s

volFieldValue error_velocity_norm write:
    max(region0) of error_velocity_mag = 6.37061867945e-06

volFieldValue L2_error_velocity_norm write:
    sqrt(sum(region0)) of error_velocity_mag_squ = 0.000577254758083

volFieldValue error_pressure_norm write:
    max(region0) of error_pres = 0.000902094388672

Courant Number mean: 0.061896882197 max: 0.0763474671733
Time = 0.17625

PIMPLE: iteration 1
DILUPBiCGStab:  Solving for Ux, Initial residual = 3.4216043863e-06, Final residual = 2.82525374789e-09, No Iterations 1
[...]
time step continuity errors : sum local = 2.74630572657e-17, global = 1.32428774344e-19, cumulative = 2.9983443314e-17
ExecutionTime = 16.5 s  ClockTime = 42 s

volFieldValue error_velocity_norm write:
    max(region0) of error_velocity_mag = 6.37061867945e-06

volFieldValue L2_error_velocity_norm write:
    sqrt(sum(region0)) of error_velocity_mag_squ = 0.000577254758083

volFieldValue error_pressure_norm write:
    max(region0) of error_pres = 0.000902094388672

Courant Number mean: 0.0618955059342 max: 0.0763465442175
Time = 0.25875

PIMPLE: iteration 1
DILUPBiCGStab:  Solving for Ux, Initial residual = 3.30753625069e-06, Final residual = 2.80386790934e-09, No Iterations 1
DILUPBiCGStab:  Solving for Uy, Initial residual = 3.30753625079e-06, Final residual = 2.80386864678e-09, No Iterations 1
DICPCG:  Solving for p, Initial residual = 6.71937362156e-06, Final residual = 4.50986710339e-08, No Iterations 74
time step continuity errors : sum local = 1.028367533e-12, global = 1.404444722e-19, cumulative = 3.01238877862e-17
DICPCG:  Solving for p, Initial residual = 2.28029959353e-07, Final residual = 2.01980157025e-09, No Iterations 35
time step continuity errors : sum local = 5.3637657697e-14, global = 1.83120727747e-19, cumulative = 3.0307008514e-17
DICPCG:  Solving for p, Initial residual = 8.37594637624e-09, Final residual = 7.97763424307e-11, No Iterations 70
time step continuity errors : sum local = 1.81896241982e-15, global = 1.73915878149e-19, cumulative = 3.04809243921e-17
DICPCG:  Solving for p, Initial residual = 3.7674233631e-10, Final residual = 9.52275298563e-13, No Iterations 47
time step continuity errors : sum local = 2.72600493215e-17, global = 1.55382250806e-19, cumulative = 3.06363066429e-17
ExecutionTime = 16.75 s  ClockTime = 42 s

volFieldValue error_velocity_norm write:
    max(region0) of error_velocity_mag = 6.37061867945e-06

volFieldValue L2_error_velocity_norm write:
    sqrt(sum(region0)) of error_velocity_mag_squ = 0.000577254758083

volFieldValue error_pressure_norm write:
    max(region0) of error_pres = 0.000902094388672

Courant Number mean: 0.061895431529 max: 0.076346493865
Time = 0.2625

PIMPLE: iteration 1
DILUPBiCGStab:  Solving for Ux, Initial residual = 3.30201073828e-06, Final residual = 2.80244395476e-09, No Iterations 1
DILUPBiCGStab:  Solving for Uy, Initial residual = 3.30201073833e-06, Final residual = 2.80244469259e-09, No Iterations 1
DICPCG:  Solving for p, Initial residual = 6.73424729712e-06, Final residual = 4.49410948961e-08, No Iterations 74
time step continuity errors : sum local = 1.02476568082e-12, global = 1.23552756184e-19, cumulative = 3.07598593991e-17
DICPCG:  Solving for p, Initial residual = 2.30248052083e-07, Final residual = 2.02408226224e-09, No Iterations 35
time step continuity errors : sum local = 5.38121313636e-14, global = 1.74287883302e-19, cumulative = 3.09341472824e-17
DICPCG:  Solving for p, Initial residual = 8.45729385131e-09, Final residual = 7.29464166595e-11, No Iterations 70
time step continuity errors : sum local = 1.66420329952e-15, global = 1.38353906738e-19, cumulative = 3.10725011892e-17
DICPCG:  Solving for p, Initial residual = 3.75497905859e-10, Final residual = 9.61652571261e-13, No Iterations 47
time step continuity errors : sum local = 2.75951353446e-17, global = 1.1136794429e-19, cumulative = 3.11838691334e-17
ExecutionTime = 16.98 s  ClockTime = 42 s

volFieldValue error_velocity_norm write:
    max(region0) of error_velocity_mag = 6.37061867945e-06

volFieldValue L2_error_velocity_norm write:
    sqrt(sum(region0)) of error_velocity_mag_squ = 0.000577254758083

volFieldValue error_pressure_norm write:
    max(region0) of error_pres = 0.000902094388672

Courant Number mean: 0.0618953561118 max: 0.0763464427176
Time = 0.26625

PIMPLE: iteration 1
DILUPBiCGStab:  Solving for Ux, Initial residual = 3.2964553404e-06, Final residual = 2.80099097239e-09, No Iterations 1
DILUPBiCGStab:  Solving for Uy, Initial residual = 3.2964553405e-06, Final residual = 2.80099171064e-09, No Iterations 1
DICPCG:  Solving for p, Initial residual = 6.74856668409e-06, Final residual = 4.47819037997e-08, No Iterations 74
time step continuity errors : sum local = 1.02112597161e-12, global = 1.09044701645e-19, cumulative = 3.12929138351e-17
DICPCG:  Solving for p, Initial residual = 2.32474697704e-07, Final residual = 2.02832840857e-09, No Iterations 35
time step continuity errors : sum local = 5.39855107683e-14, global = 1.23796245201e-19, cumulative = 3.14167100803e-17
DICPCG:  Solving for p, Initial residual = 8.53860659439e-09, Final residual = 7.26276855432e-11, No Iterations 70
time step continuity errors : sum local = 1.65668273479e-15, global = 1.29667380592e-19, cumulative = 3.15463774609e-17
DICPCG:  Solving for p, Initial residual = 3.78771211773e-10, Final residual = 9.53779709259e-13, No Iterations 47
time step continuity errors : sum local = 2.74956886899e-17, global = 1.54395391942e-19, cumulative = 3.17007728528e-17
ExecutionTime = 17.22 s  ClockTime = 43 s

volFieldValue error_velocity_norm write:
    max(region0) of error_velocity_mag = 6.37061867945e-06

volFieldValue L2_error_velocity_norm write:
    sqrt(sum(region0)) of error_velocity_mag_squ = 0.000577254758083

volFieldValue error_pressure_norm write:
    max(region0) of error_pres = 0.000902094388672

Courant Number mean: 0.0618952796847 max: 0.0763463907674
Time = 0.27

PIMPLE: iteration 1
DILUPBiCGStab:  Solving for Ux, Initial residual = 3.29089101637e-06, Final residual = 2.79950935532e-09, No Iterations 1
DILUPBiCGStab:  Solving for Uy, Initial residual = 3.29089101643e-06, Final residual = 2.79951009392e-09, No Iterations 1
DICPCG:  Solving for p, Initial residual = 6.76268931007e-06, Final residual = 4.46227392331e-08, No Iterations 74
time step continuity errors : sum local = 1.01748586944e-12, global = 8.99476330871e-20, cumulative = 3.17907204859e-17
DICPCG:  Solving for p, Initial residual = 2.34709410774e-07, Final residual = 2.03255079843e-09, No Iterations 35
time step continuity errors : sum local = 5.41578774792e-14, global = 1.19073308892e-19, cumulative = 3.19097937948e-17
DICPCG:  Solving for p, Initial residual = 8.61982627124e-09, Final residual = 7.41658718923e-11, No Iterations 70
time step continuity errors : sum local = 1.69128796526e-15, global = 1.44355632265e-19, cumulative = 3.20541494271e-17
DICPCG:  Solving for p, Initial residual = 3.83400820099e-10, Final residual = 9.43762230857e-13, No Iterations 47
time step continuity errors : sum local = 2.72664668088e-17, global = 1.35129615734e-19, cumulative = 3.21892790428e-17
ExecutionTime = 17.46 s  ClockTime = 43 s

volFieldValue error_velocity_norm write:
    max(region0) of error_velocity_mag = 6.37061867945e-06

volFieldValue L2_error_velocity_norm write:
    sqrt(sum(region0)) of error_velocity_mag_squ = 0.000577254758083

volFieldValue error_pressure_norm write:
    max(region0) of error_pres = 0.000902094388672

Courant Number mean: 0.0618952022503 max: 0.0763463380064
Time = 0.27375

PIMPLE: iteration 1
DILUPBiCGStab:  Solving for Ux, Initial residual = 3.28529132949e-06, Final residual = 2.79800020227e-09, No Iterations 1
DILUPBiCGStab:  Solving for Uy, Initial residual = 3.28529132952e-06, Final residual = 2.79800094114e-09, No Iterations 1
DICPCG:  Solving for p, Initial residual = 6.77671865142e-06, Final residual = 6.75113721302e-08, No Iterations 73
time step continuity errors : sum local = 1.53632778443e-12, global = 1.61175807844e-19, cumulative = 3.23504548507e-17
DICPCG:  Solving for p, Initial residual = 2.51152182487e-07, Final residual = 2.4519808352e-09, No Iterations 34
time step continuity errors : sum local = 6.30806402954e-14, global = 1.1382470661e-19, cumulative = 3.24642795573e-17
DICPCG:  Solving for p, Initial residual = 9.1112958968e-09, Final residual = 7.75546398886e-11, No Iterations 71
time step continuity errors : sum local = 1.77241384863e-15, global = 1.98003117048e-19, cumulative = 3.26622826743e-17
DICPCG:  Solving for p, Initial residual = 3.85971369625e-10, Final residual = 9.93755866632e-13, No Iterations 46
time step continuity errors : sum local = 2.85956335892e-17, global = 1.40497655846e-19, cumulative = 3.28027803302e-17
ExecutionTime = 17.7 s  ClockTime = 43 s

volFieldValue error_velocity_norm write:
    max(region0) of error_velocity_mag = 6.37061867945e-06

volFieldValue L2_error_velocity_norm write:
    sqrt(sum(region0)) of error_velocity_mag_squ = 0.000577254758083

volFieldValue error_pressure_norm write:
    max(region0) of error_pres = 0.000902094388672

Courant Number mean: 0.0618951238108 max: 0.0763462844269
Time = 0.2775

PIMPLE: iteration 1
DILUPBiCGStab:  Solving for Ux, Initial residual = 3.27965286974e-06, Final residual = 2.79646309739e-09, No Iterations 1
DILUPBiCGStab:  Solving for Uy, Initial residual = 3.27965286943e-06, Final residual = 2.79646383671e-09, No Iterations 1
DICPCG:  Solving for p, Initial residual = 6.79011679439e-06, Final residual = 6.72406643237e-08, No Iterations 73
time step continuity errors : sum local = 1.53020122483e-12, global = 1.591598653e-19, cumulative = 3.29619401955e-17
DICPCG:  Solving for p, Initial residual = 2.53294794737e-07, Final residual = 2.45993214971e-09, No Iterations 34
time step continuity errors : sum local = 6.33388008503e-14, global = 1.35960836913e-19, cumulative = 3.30979010324e-17
DICPCG:  Solving for p, Initial residual = 9.19408261296e-09, Final residual = 7.96673136057e-11, No Iterations 71
time step continuity errors : sum local = 1.81969571199e-15, global = 1.47611354916e-19, cumulative = 3.32455123873e-17
DICPCG:  Solving for p, Initial residual = 3.90315751065e-10, Final residual = 9.97183405904e-13, No Iterations 46
time step continuity errors : sum local = 2.874964788e-17, global = 1.4902696941e-19, cumulative = 3.33945393567e-17
ExecutionTime = 17.95 s  ClockTime = 43 s

volFieldValue error_velocity_norm write:
    max(region0) of error_velocity_mag = 6.37061867945e-06

volFieldValue L2_error_velocity_norm write:
    sqrt(sum(region0)) of error_velocity_mag_squ = 0.000577254758083

volFieldValue error_pressure_norm write:
    max(region0) of error_pres = 0.000902094388672

Courant Number mean: 0.0618950443686 max: 0.0763462300211
Time = 0.28125

PIMPLE: iteration 1
DILUPBiCGStab:  Solving for Ux, Initial residual = 3.27397958311e-06, Final residual = 2.79489997573e-09, No Iterations 1
DILUPBiCGStab:  Solving for Uy, Initial residual = 3.27397958316e-06, Final residual = 2.7949007159e-09, No Iterations 1
DICPCG:  Solving for p, Initial residual = 6.80293449243e-06, Final residual = 6.69732852068e-08, No Iterations 73
time step continuity errors : sum local = 1.5241511391e-12, global = 1.65499671491e-19, cumulative = 3.35600390282e-17
DICPCG:  Solving for p, Initial residual = 2.55447203505e-07, Final residual = 2.46779365137e-09, No Iterations 34
time step continuity errors : sum local = 6.35942069794e-14, global = 1.37624369135e-19, cumulative = 3.36976633973e-17
DICPCG:  Solving for p, Initial residual = 9.27710119784e-09, Final residual = 8.93380832903e-11, No Iterations 70
time step continuity errors : sum local = 2.03938962385e-15, global = 1.60536813397e-19, cumulative = 3.38582002107e-17
DICPCG:  Solving for p, Initial residual = 4.01559642873e-10, Final residual = 9.26537665498e-13, No Iterations 47
time step continuity errors : sum local = 2.71709935069e-17, global = 1.14385453641e-19, cumulative = 3.39725856644e-17
ExecutionTime = 18.19 s  ClockTime = 44 s

volFieldValue error_velocity_norm write:
    max(region0) of error_velocity_mag = 6.37061867945e-06

volFieldValue L2_error_velocity_norm write:
    sqrt(sum(region0)) of error_velocity_mag_squ = 0.000577254758083

volFieldValue error_pressure_norm write:
    max(region0) of error_pres = 0.000902094388672

Courant Number mean: 0.0618949639261 max: 0.0763461747813
Time = 0.285

PIMPLE: iteration 1
DILUPBiCGStab:  Solving for Ux, Initial residual = 3.26828182343e-06, Final residual = 2.7933125291e-09, No Iterations 1
DILUPBiCGStab:  Solving for Uy, Initial residual = 3.26828182345e-06, Final residual = 2.79331326729e-09, No Iterations 1
DICPCG:  Solving for p, Initial residual = 6.81507968159e-06, Final residual = 6.66779522466e-08, No Iterations 73
time step continuity errors : sum local = 1.51746584354e-12, global = 1.4862138625e-19, cumulative = 3.41212070506e-17
DICPCG:  Solving for p, Initial residual = 2.57574020066e-07, Final residual = 2.47552971084e-09, No Iterations 34
time step continuity errors : sum local = 6.38458914887e-14, global = 1.15198600033e-19, cumulative = 3.42364056506e-17
DICPCG:  Solving for p, Initial residual = 9.35986145779e-09, Final residual = 8.88763586713e-11, No Iterations 70
time step continuity errors : sum local = 2.02791703789e-15, global = 1.07105480039e-19, cumulative = 3.43435111307e-17
DICPCG:  Solving for p, Initial residual = 4.04726416891e-10, Final residual = 9.26144854605e-13, No Iterations 47
time step continuity errors : sum local = 2.72171250763e-17, global = 1.48146694239e-19, cumulative = 3.44916578249e-17
ExecutionTime = 18.42 s  ClockTime = 44 s

volFieldValue error_velocity_norm write:
    max(region0) of error_velocity_mag = 6.37061867945e-06

volFieldValue L2_error_velocity_norm write:
    sqrt(sum(region0)) of error_velocity_mag_squ = 0.000577254758083

volFieldValue error_pressure_norm write:
    max(region0) of error_pres = 0.000902094388672

Courant Number mean: 0.0618948824856 max: 0.0763461187
Time = 0.28875

PIMPLE: iteration 1
DILUPBiCGStab:  Solving for Ux, Initial residual = 3.26256186847e-06, Final residual = 2.79170044271e-09, No Iterations 1
DILUPBiCGStab:  Solving for Uy, Initial residual = 3.26256186853e-06, Final residual = 2.79170118117e-09, No Iterations 1
DICPCG:  Solving for p, Initial residual = 6.82674245143e-06, Final residual = 6.64110479419e-08, No Iterations 73
time step continuity errors : sum local = 1.51142658338e-12, global = 9.95367822303e-20, cumulative = 3.45911946071e-17
DICPCG:  Solving for p, Initial residual = 2.59727918587e-07, Final residual = 2.48312535145e-09, No Iterations 34
time step continuity errors : sum local = 6.40934403476e-14, global = 1.52924568452e-19, cumulative = 3.47441191756e-17
DICPCG:  Solving for p, Initial residual = 9.44255354946e-09, Final residual = 8.82692818167e-11, No Iterations 70
time step continuity errors : sum local = 2.0144241414e-15, global = 6.49281993549e-20, cumulative = 3.4809047375e-17
DICPCG:  Solving for p, Initial residual = 4.07516554601e-10, Final residual = 9.27444141086e-13, No Iterations 47
time step continuity errors : sum local = 2.72682824583e-17, global = 1.78712860977e-19, cumulative = 3.49877602359e-17
ExecutionTime = 18.66 s  ClockTime = 44 s

volFieldValue error_velocity_norm write:
    max(region0) of error_velocity_mag = 6.37061867945e-06

volFieldValue L2_error_velocity_norm write:
    sqrt(sum(region0)) of error_velocity_mag_squ = 0.000577254758083

volFieldValue error_pressure_norm write:
    max(region0) of error_pres = 0.000902094388672

Courant Number mean: 0.0618948000496 max: 0.0763460617698
Time = 0.2925

PIMPLE: iteration 1
DILUPBiCGStab:  Solving for Ux, Initial residual = 3.256812029e-06, Final residual = 2.79006241e-09, No Iterations 1
DILUPBiCGStab:  Solving for Uy, Initial residual = 3.25681202906e-06, Final residual = 2.79006314871e-09, No Iterations 1
DICPCG:  Solving for p, Initial residual = 6.83840640213e-06, Final residual = 6.61423575105e-08, No Iterations 73
time step continuity errors : sum local = 1.50534791818e-12, global = 1.0719896866e-19, cumulative = 3.50949592046e-17
DICPCG:  Solving for p, Initial residual = 2.61891817156e-07, Final residual = 2.49043887226e-09, No Iterations 34
time step continuity errors : sum local = 6.43338151491e-14, global = 1.42734078498e-19, cumulative = 3.52376932831e-17
DICPCG:  Solving for p, Initial residual = 9.52519493512e-09, Final residual = 9.13511704555e-11, No Iterations 70
time step continuity errors : sum local = 2.08478369045e-15, global = 7.11386975742e-20, cumulative = 3.53088319807e-17
DICPCG:  Solving for p, Initial residual = 4.12412890966e-10, Final residual = 9.3188194645e-13, No Iterations 47
time step continuity errors : sum local = 2.7438598842e-17, global = 1.29411881011e-19, cumulative = 3.54382438617e-17
ExecutionTime = 18.9 s  ClockTime = 44 s

volFieldValue error_velocity_norm write:
    max(region0) of error_velocity_mag = 6.37061867945e-06

volFieldValue L2_error_velocity_norm write:
    sqrt(sum(region0)) of error_velocity_mag_squ = 0.000577254758083

volFieldValue error_pressure_norm write:
    max(region0) of error_pres = 0.000902094388672

Courant Number mean: 0.0618947166206 max: 0.0763460039834
Time = 0.29625

PIMPLE: iteration 1
DILUPBiCGStab:  Solving for Ux, Initial residual = 3.25102722936e-06, Final residual = 2.78839832137e-09, No Iterations 1
DILUPBiCGStab:  Solving for Uy, Initial residual = 3.25102722938e-06, Final residual = 2.78839906018e-09, No Iterations 1
DICPCG:  Solving for p, Initial residual = 6.84978437941e-06, Final residual = 6.58332435666e-08, No Iterations 73
time step continuity errors : sum local = 1.49834707414e-12, global = 1.05245754151e-19, cumulative = 3.55434896158e-17
DICPCG:  Solving for p, Initial residual = 2.63985939575e-07, Final residual = 2.4975731783e-09, No Iterations 34
time step continuity errors : sum local = 6.45687473415e-14, global = 1.32182077026e-19, cumulative = 3.56756716929e-17
DICPCG:  Solving for p, Initial residual = 9.60772544919e-09, Final residual = 9.14633945503e-11, No Iterations 70
time step continuity errors : sum local = 2.08717687978e-15, global = 1.08585247773e-19, cumulative = 3.57842569406e-17
DICPCG:  Solving for p, Initial residual = 4.15661130372e-10, Final residual = 9.39048577086e-13, No Iterations 47
time step continuity errors : sum local = 2.76166137519e-17, global = 7.62620953215e-20, cumulative = 3.58605190359e-17
ExecutionTime = 19.17 s  ClockTime = 45 s

volFieldValue error_velocity_norm write:
    max(region0) of error_velocity_mag = 6.37061867945e-06

volFieldValue L2_error_velocity_norm write:
    sqrt(sum(region0)) of error_velocity_mag_squ = 0.000577254758083

volFieldValue error_pressure_norm write:
    max(region0) of error_pres = 0.000902094388672

Courant Number mean: 0.0618946322008 max: 0.0763459453336
Time = 0.3

PIMPLE: iteration 1
DILUPBiCGStab:  Solving for Ux, Initial residual = 3.2452186393e-06, Final residual = 2.78670894757e-09, No Iterations 1
DILUPBiCGStab:  Solving for Uy, Initial residual = 3.24521863937e-06, Final residual = 2.78670968668e-09, No Iterations 1
DICPCG:  Solving for p, Initial residual = 6.86060614642e-06, Final residual = 6.55864732218e-08, No Iterations 73
time step continuity errors : sum local = 1.49276800719e-12, global = 1.17113230443e-19, cumulative = 3.59776322664e-17
DICPCG:  Solving for p, Initial residual = 2.66181713336e-07, Final residual = 2.50429904514e-09, No Iterations 34
time step continuity errors : sum local = 6.47940163598e-14, global = 1.63949874432e-19, cumulative = 3.61415821408e-17
DICPCG:  Solving for p, Initial residual = 9.68980101638e-09, Final residual = 9.5256317737e-11, No Iterations 70
time step continuity errors : sum local = 2.17357235797e-15, global = 1.12938583322e-19, cumulative = 3.62545207241e-17
DICPCG:  Solving for p, Initial residual = 4.20718671376e-10, Final residual = 9.47182119986e-13, No Iterations 47
time step continuity errors : sum local = 2.79567211774e-17, global = 1.29162799121e-19, cumulative = 3.63836835233e-17
ExecutionTime = 19.4 s  ClockTime = 45 s

volFieldValue error_velocity_norm write:
    max(region0) of error_velocity_mag = 6.37061867945e-06

volFieldValue L2_error_velocity_norm write:
    sqrt(sum(region0)) of error_velocity_mag_squ = 0.000577254758083

volFieldValue error_pressure_norm write:
    max(region0) of error_pres = 0.000902094388672

End

