/*---------------------------------------------------------------------------*\
| =========                 |                                                 |
| \\      /  F ield         | OpenFOAM: The Open Source CFD Toolbox           |
|  \\    /   O peration     | Version:  2406                                  |
|   \\  /    A nd           | Website:  www.openfoam.com                      |
|    \\/     M anipulation  |                                                 |
\*---------------------------------------------------------------------------*/
Build  : _630d60de3b-20240620 OPENFOAM=2406 version=v2406
Arch   : "LSB;label=32;scalar=64"
Exec   : pimpleFoam
Date   : Sep 07 2024
Time   : 22:01:19
Host   : hakan-X556UQK
PID    : 18660
I/O    : uncollated
Case   : /home/hakan/courses/testSimulation/tgv2dTests/tgv2d_temporal/pimple/pimple_nu0.0000001/TGV_temporal
nProcs : 1
trapFpe: Floating point exception trapping enabled (FOAM_SIGFPE).
fileModificationChecking : Monitoring run-time modified files using timeStampMaster (fileModificationSkew 5, maxFileModificationPolls 20)
allowSystemOperations : Allowing user-supplied system call operations

// * * * * * * * * * * * * * * * * * * * * * * * * * * * * * * * * * * * * * //
Create time

Create mesh for time = 0


PIMPLE: Operating solver in PISO mode

Reading field p

Using #codeStream at line 19 in file "0/p"
Using #codeStream with "/home/hakan/courses/testSimulation/tgv2dTests/tgv2d_temporal/pimple/pimple_nu0.0000001/TGV_temporal/dynamicCode/platforms/linux64GccDPInt32Opt/lib/libcodeStream_537564b8bd232f4ddf4797bc6f60eef024868c2e.so"
Creating new library in "dynamicCode/_537564b8bd232f4ddf4797bc6f60eef024868c2e/platforms/linux64GccDPInt32Opt/lib/libcodeStream_537564b8bd232f4ddf4797bc6f60eef024868c2e.so"
Invoking wmake libso /home/hakan/courses/testSimulation/tgv2dTests/tgv2d_temporal/pimple/pimple_nu0.0000001/TGV_temporal/dynamicCode/_537564b8bd232f4ddf4797bc6f60eef024868c2e
wmake libso /home/hakan/courses/testSimulation/tgv2dTests/tgv2d_temporal/pimple/pimple_nu0.0000001/TGV_temporal/dynamicCode/_537564b8bd232f4ddf4797bc6f60eef024868c2e
    dep: codeStreamTemplate.C
    Ctoo: codeStreamTemplate.C
    link: /home/hakan/courses/testSimulation/tgv2dTests/tgv2d_temporal/pimple/pimple_nu0.0000001/TGV_temporal/dynamicCode/_537564b8bd232f4ddf4797bc6f60eef024868c2e/../platforms/linux64GccDPInt32Opt/lib/libcodeStream_537564b8bd232f4ddf4797bc6f60eef024868c2e.so
Reading field U

Using #codeStream at line 19 in file "0/U"
Using #codeStream with "/home/hakan/courses/testSimulation/tgv2dTests/tgv2d_temporal/pimple/pimple_nu0.0000001/TGV_temporal/dynamicCode/platforms/linux64GccDPInt32Opt/lib/libcodeStream_18dd48bdf5aea29696d9cbfe8eb27bc690b7dc03.so"
Creating new library in "dynamicCode/_18dd48bdf5aea29696d9cbfe8eb27bc690b7dc03/platforms/linux64GccDPInt32Opt/lib/libcodeStream_18dd48bdf5aea29696d9cbfe8eb27bc690b7dc03.so"
Invoking wmake libso /home/hakan/courses/testSimulation/tgv2dTests/tgv2d_temporal/pimple/pimple_nu0.0000001/TGV_temporal/dynamicCode/_18dd48bdf5aea29696d9cbfe8eb27bc690b7dc03
wmake libso /home/hakan/courses/testSimulation/tgv2dTests/tgv2d_temporal/pimple/pimple_nu0.0000001/TGV_temporal/dynamicCode/_18dd48bdf5aea29696d9cbfe8eb27bc690b7dc03
    dep: codeStreamTemplate.C
    Ctoo: codeStreamTemplate.C
    link: /home/hakan/courses/testSimulation/tgv2dTests/tgv2d_temporal/pimple/pimple_nu0.0000001/TGV_temporal/dynamicCode/_18dd48bdf5aea29696d9cbfe8eb27bc690b7dc03/../platforms/linux64GccDPInt32Opt/lib/libcodeStream_18dd48bdf5aea29696d9cbfe8eb27bc690b7dc03.so
Reading/calculating face flux field phi

Selecting incompressible transport model Newtonian
Selecting turbulence model type laminar
Selecting laminar stress model Stokes
No MRF models present

No finite volume options present
Courant Number mean: 0.495184637222 max: 0.610786900035
Courant Number mean: 0.495184637222 max: 0.610786900035

Starting time loop

Using dynamicCode for functionObject diff at line 51 in "/home/hakan/courses/testSimulation/tgv2dTests/tgv2d_temporal/pimple/pimple_nu0.0000001/TGV_temporal/system/controlDict/functions/diff"
Creating new library in "dynamicCode/diff/platforms/linux64GccDPInt32Opt/lib/libdiff_d924c92ec3fe0b16fec6b8892a9fc1c20fa93dd8.so"
Invoking wmake libso /home/hakan/courses/testSimulation/tgv2dTests/tgv2d_temporal/pimple/pimple_nu0.0000001/TGV_temporal/dynamicCode/diff
wmake libso /home/hakan/courses/testSimulation/tgv2dTests/tgv2d_temporal/pimple/pimple_nu0.0000001/TGV_temporal/dynamicCode/diff
    dep: functionObjectTemplate.C
    Ctoo: functionObjectTemplate.C
    link: /home/hakan/courses/testSimulation/tgv2dTests/tgv2d_temporal/pimple/pimple_nu0.0000001/TGV_temporal/dynamicCode/diff/../platforms/linux64GccDPInt32Opt/lib/libdiff_d924c92ec3fe0b16fec6b8892a9fc1c20fa93dd8.so
Courant Number mean: 0.495184637222 max: 0.610786900035
Time = 0.03

PIMPLE: iteration 1
DILUPBiCGStab:  Solving for Ux, Initial residual = 7.09375397346e-06, Final residual = 4.84315866433e-09, No Iterations 2
DILUPBiCGStab:  Solving for Uy, Initial residual = 7.09375397358e-06, Final residual = 4.84316251568e-09, No Iterations 2
DICPCG:  Solving for p, Initial residual = 0.000904546559845, Final residual = 8.5138203406e-06, No Iterations 35
time step continuity errors : sum local = 1.26671150499e-08, global = 1.9332878347e-19, cumulative = 1.9332878347e-19
DICPCG:  Solving for p, Initial residual = 3.07244413186e-05, Final residual = 2.66563040659e-07, No Iterations 72
time step continuity errors : sum local = 3.87562242321e-10, global = -9.07993384743e-20, cumulative = 1.02529444995e-19
DICPCG:  Solving for p, Initial residual = 1.24621413959e-06, Final residual = 1.18889374527e-08, No Iterations 36
time step continuity errors : sum local = 1.86651745603e-11, global = 2.45031859089e-19, cumulative = 3.47561304085e-19
DICPCG:  Solving for p, Initial residual = 1.51797774846e-07, Final residual = 9.47273135405e-13, No Iterations 136
time step continuity errors : sum local = 1.39180583951e-15, global = -3.11885680282e-19, cumulative = 3.56756238023e-20
ExecutionTime = 0.39 s  ClockTime = 27 s

    Reading error_velocity_mag (volScalarField)
    Reading error_velocity_mag_squ (volScalarField)
    Reading error_pres (volScalarField)
volFieldValue error_velocity_norm write:
    max(region0) of error_velocity_mag = 5.10054450089e-05

volFieldValue L2_error_velocity_norm write:
    sqrt(sum(region0)) of error_velocity_mag_squ = 0.00461913533057

volFieldValue error_pressure_norm write:
    max(region0) of error_pres = 0.000903400393155

Courant Number mean: 0.495184063255 max: 0.610786371499
Time = 0.06

PIMPLE: iteration 1
DILUPBiCGStab:  Solving for Ux, Initial residual = 2.83320111067e-05, Final residual = 1.84546915475e-09, No Iterations 2
DILUPBiCGStab:  Solving for Uy, Initial residual = 2.8332008558e-05, Final residual = 1.8454581667e-09, No Iterations 2
DICPCG:  Solving for p, Initial residual = 3.62440133616e-05, Final residual = 3.38546224131e-07, No Iterations 16
time step continuity errors : sum local = 3.56667701541e-10, global = 1.52593427972e-19, cumulative = 1.88269051775e-19
DICPCG:  Solving for p, Initial residual = 1.70394123039e-06, Final residual = 1.54283183744e-08, No Iterations 75
time step continuity errors : sum local = 1.5028575721e-11, global = 1.87632417673e-19, cumulative = 3.75901469448e-19
DICPCG:  Solving for p, Initial residual = 7.08747020262e-08, Final residual = 6.80066623253e-10, No Iterations 35
time step continuity errors : sum local = 7.86848421484e-13, global = 6.47970004621e-20, cumulative = 4.4069846991e-19
DICPCG:  Solving for p, Initial residual = 1.12261144656e-08, Final residual = 8.40134902496e-13, No Iterations 113
time step continuity errors : sum local = 8.25008663018e-16, global = 9.77191034508e-20, cumulative = 5.38417573361e-19
ExecutionTime = 0.7 s  ClockTime = 28 s

volFieldValue error_velocity_norm write:
    max(region0) of error_velocity_mag = 5.10054450089e-05

volFieldValue L2_error_velocity_norm write:
    sqrt(sum(region0)) of error_velocity_mag_squ = 0.00461913533057

volFieldValue error_pressure_norm write:
    max(region0) of error_pres = 0.000903400393155

Courant Number mean: 0.49518310876 max: 0.610785487977
Time = 0.09

PIMPLE: iteration 1
DILUPBiCGStab:  Solving for Ux, Initial residual = 2.83200707521e-05, Final residual = 1.9023265718e-09, No Iterations 2
DILUPBiCGStab:  Solving for Uy, Initial residual = 2.83200700926e-05, Final residual = 1.9023325641e-09, No Iterations 2
DICPCG:  Solving for p, Initial residual = 3.66638767192e-05, Final residual = 2.99125488004e-07, No Iterations 18
time step continuity errors : sum local = 3.26309621284e-10, global = -4.21002440717e-20, cumulative = 4.96317329289e-19
DICPCG:  Solving for p, Initial residual = 1.73141851326e-06, Final residual = 1.53297436721e-08, No Iterations 76
time step continuity errors : sum local = 1.4965680227e-11, global = 4.70310731643e-19, cumulative = 9.66628060932e-19
DICPCG:  Solving for p, Initial residual = 7.4950591228e-08, Final residual = 7.10853388364e-10, No Iterations 38
time step continuity errors : sum local = 8.36051652168e-13, global = 1.41309403988e-19, cumulative = 1.10793746492e-18
DICPCG:  Solving for p, Initial residual = 1.26839439306e-08, Final residual = 7.50296008302e-13, No Iterations 114
time step continuity errors : sum local = 7.37197288139e-16, global = -1.47584094131e-19, cumulative = 9.60353370789e-19
ExecutionTime = 0.98 s  ClockTime = 28 s

volFieldValue error_velocity_norm write:
    max(region0) of error_velocity_mag = 5.10054450089e-05

volFieldValue L2_error_velocity_norm write:
    sqrt(sum(region0)) of error_velocity_mag_squ = 0.00461913533057

volFieldValue error_pressure_norm write:
    max(region0) of error_pres = 0.000903400393155

Courant Number mean: 0.495181647261 max: 0.610784134043
Time = 0.12

PIMPLE: iteration 1
DILUPBiCGStab:  Solving for Ux, Initial residual = 2.8315463421e-05, Final residual = 1.96191286122e-09, No Iterations 2
DILUPBiCGStab:  Solving for Uy, Initial residual = 2.83154650589e-05, Final residual = 1.96191362909e-09, No Iterations 2
DICPCG:  Solving for p, Initial residual = 3.72467279911e-05, Final residual = 3.16780770068e-07, No Iterations 19
time step continuity errors : sum local = 3.50693741663e-10, global = 2.60353692601e-20, cumulative = 9.86388740049e-19
DICPCG:  Solving for p, Initial residual = 1.7615750276e-06, Final residual = 1.67625542441e-08, No Iterations 77
time step continuity errors : sum local = 1.62591795178e-11, global = 2.35462853694e-19, cumulative = 1.22185159374e-18
DICPCG:  Solving for p, Initial residual = 8.73638553318e-08, Final residual = 7.77327014922e-10, No Iterations 44
time step continuity errors : sum local = 9.16013697246e-13, global = 3.46680801133e-20, cumulative = 1.25651967386e-18
DICPCG:  Solving for p, Initial residual = 1.481887489e-08, Final residual = 9.03292270008e-13, No Iterations 114
time step continuity errors : sum local = 8.84753719725e-16, global = 6.15668802378e-20, cumulative = 1.31808655409e-18
ExecutionTime = 1.28 s  ClockTime = 28 s

volFieldValue error_velocity_norm write:
    max(region0) of error_velocity_mag = 5.10054450089e-05

volFieldValue L2_error_velocity_norm write:
    sqrt(sum(region0)) of error_velocity_mag_squ = 0.00461913533057

volFieldValue error_pressure_norm write:
    max(region0) of error_pres = 0.000903400393155

Courant Number mean: 0.495179637191 max: 0.610782292099
Time = 0.15

PIMPLE: iteration 1
DILUPBiCGStab:  Solving for Ux, Initial residual = 2.82994572708e-05, Final residual = 2.02091017316e-09, No Iterations 2
DILUPBiCGStab:  Solving for Uy, Initial residual = 2.82994583553e-05, Final residual = 2.02090698949e-09, No Iterations 2
DICPCG:  Solving for p, Initial residual = 3.79378119021e-05, Final residual = 3.05879933891e-07, No Iterations 20
time step continuity errors : sum local = 3.47668275176e-10, global = 1.69423360018e-19, cumulative = 1.48750991411e-18
DICPCG:  Solving for p, Initial residual = 1.80571633832e-06, Final residual = 1.79611382031e-08, No Iterations 78
time step continuity errors : sum local = 1.74162931693e-11, global = -7.10435306864e-20, cumulative = 1.41646638343e-18
DICPCG:  Solving for p, Initial residual = 1.01684787876e-07, Final residual = 1.00833266408e-09, No Iterations 43
time step continuity errors : sum local = 1.16747833512e-12, global = 4.5683577198e-20, cumulative = 1.46214996062e-18
DICPCG:  Solving for p, Initial residual = 1.72660640662e-08, Final residual = 7.68416598023e-13, No Iterations 115
time step continuity errors : sum local = 7.56320626129e-16, global = 5.55412455411e-19, cumulative = 2.01756241603e-18
ExecutionTime = 1.6 s  ClockTime = 29 s

volFieldValue error_velocity_norm write:
    max(region0) of error_velocity_mag = 5.10054450089e-05

volFieldValue L2_error_velocity_norm write:
    sqrt(sum(region0)) of error_velocity_mag_squ = 0.00461913533057

volFieldValue error_pressure_norm write:
    max(region0) of error_pres = 0.000903400393155

Courant Number mean: 0.495177065525 max: 0.610779969032
Time = 0.18

PIMPLE: iteration 1
DILUPBiCGStab:  Solving for Ux, Initial residual = 2.82701605627e-05, Final residual = 2.07824583115e-09, No Iterations 2
DILUPBiCGStab:  Solving for Uy, Initial residual = 2.82701610126e-05, Final residual = 2.07823983237e-09, No Iterations 2
DICPCG:  Solving for p, Initial residual = 3.87125036966e-05, Final residual = 3.57825901349e-07, No Iterations 20
time step continuity errors : sum local = 4.04949877696e-10, global = 6.15238214425e-19, cumulative = 2.63280063046e-18
DICPCG:  Solving for p, Initial residual = 1.87764904482e-06, Final residual = 1.80405798011e-08, No Iterations 85
time step continuity errors : sum local = 1.74802339563e-11, global = 5.19032643912e-19, cumulative = 3.15183327437e-18
DICPCG:  Solving for p, Initial residual = 1.20256530603e-07, Final residual = 1.14557881598e-09, No Iterations 33
time step continuity errors : sum local = 1.32777878679e-12, global = 1.24425985824e-19, cumulative = 3.2762592602e-18
DICPCG:  Solving for p, Initial residual = 2.02416666721e-08, Final residual = 8.76744243135e-13, No Iterations 116
time step continuity errors : sum local = 8.59484773764e-16, global = 4.18647691811e-19, cumulative = 3.69490695201e-18
ExecutionTime = 1.89 s  ClockTime = 29 s

volFieldValue error_velocity_norm write:
    max(region0) of error_velocity_mag = 5.10054450089e-05

volFieldValue L2_error_velocity_norm write:
    sqrt(sum(region0)) of error_velocity_mag_squ = 0.00461913533057

volFieldValue error_pressure_norm write:
    max(region0) of error_pres = 0.000903400393155

Courant Number mean: 0.495173928988 max: 0.610777163547
Time = 0.21

PIMPLE: iteration 1
DILUPBiCGStab:  Solving for Ux, Initial residual = 2.8240157926e-05, Final residual = 2.13358668131e-09, No Iterations 2
DILUPBiCGStab:  Solving for Uy, Initial residual = 2.824015783e-05, Final residual = 2.13357916729e-09, No Iterations 2
DICPCG:  Solving for p, Initial residual = 3.95539091899e-05, Final residual = 3.38004121448e-07, No Iterations 21
time step continuity errors : sum local = 3.91145537036e-10, global = 4.28135762444e-19, cumulative = 4.12304271445e-18
DICPCG:  Solving for p, Initial residual = 1.92081248364e-06, Final residual = 1.59482711245e-08, No Iterations 87
time step continuity errors : sum local = 1.54886659901e-11, global = 3.88137881884e-19, cumulative = 4.51118059633e-18
DICPCG:  Solving for p, Initial residual = 1.31245195341e-07, Final residual = 1.2125016808e-09, No Iterations 31
time step continuity errors : sum local = 1.37987727696e-12, global = 5.62866526669e-19, cumulative = 5.074047123e-18
DICPCG:  Solving for p, Initial residual = 2.24156042997e-08, Final residual = 9.20414707644e-13, No Iterations 117
time step continuity errors : sum local = 9.00823399641e-16, global = 5.54116621619e-19, cumulative = 5.62816374462e-18
ExecutionTime = 2.19 s  ClockTime = 29 s

volFieldValue error_velocity_norm write:
    max(region0) of error_velocity_mag = 5.10054450089e-05

volFieldValue L2_error_velocity_norm write:
    sqrt(sum(region0)) of error_velocity_mag_squ = 0.00461913533057

volFieldValue error_pressure_norm write:
    max(region0) of error_pres = 0.000903400393155

Courant Number mean: 0.495170227771 max: 0.610773883477
Time = 0.24

PIMPLE: iteration 1
DILUPBiCGStab:  Solving for Ux, Initial residual = 2.82084115675e-05, Final residual = 2.18684007019e-09, No Iterations 2
DILUPBiCGStab:  Solving for Uy, Initial residual = 2.82084132498e-05, Final residual = 2.18683222963e-09, No Iterations 2
DICPCG:  Solving for p, Initial residual = 4.04445789386e-05, Final residual = 3.73147546241e-07, No Iterations 21
time step continuity errors : sum local = 4.30887447607e-10, global = 4.64267450961e-19, cumulative = 6.09243119558e-18
DICPCG:  Solving for p, Initial residual = 1.99570552577e-06, Final residual = 1.73474384966e-08, No Iterations 87
time step continuity errors : sum local = 1.68475935672e-11, global = 1.17100461968e-19, cumulative = 6.20953165755e-18
DICPCG:  Solving for p, Initial residual = 1.50620904428e-07, Final residual = 1.49851824882e-09, No Iterations 29
time step continuity errors : sum local = 1.66773839563e-12, global = 5.71424887414e-19, cumulative = 6.78095654496e-18
DICPCG:  Solving for p, Initial residual = 2.55169448564e-08, Final residual = 9.62939610609e-13, No Iterations 126
time step continuity errors : sum local = 9.44058700207e-16, global = 6.5222552907e-19, cumulative = 7.43318207403e-18
ExecutionTime = 2.48 s  ClockTime = 30 s

volFieldValue error_velocity_norm write:
    max(region0) of error_velocity_mag = 5.10054450089e-05

volFieldValue L2_error_velocity_norm write:
    sqrt(sum(region0)) of error_velocity_mag_squ = 0.00461913533057

volFieldValue error_pressure_norm write:
    max(region0) of error_pres = 0.000903400393155

Courant Number mean: 0.495165963433 max: 0.610770135921
Time = 0.27

PIMPLE: iteration 1
DILUPBiCGStab:  Solving for Ux, Initial residual = 2.81685725137e-05, Final residual = 2.23799685986e-09, No Iterations 2
DILUPBiCGStab:  Solving for Uy, Initial residual = 2.81685738813e-05, Final residual = 2.23799005689e-09, No Iterations 2
DICPCG:  Solving for p, Initial residual = 4.13780381527e-05, Final residual = 4.04730222194e-07, No Iterations 21
time step continuity errors : sum local = 4.66438392087e-10, global = 4.60776263925e-19, cumulative = 7.89395833796e-18
DICPCG:  Solving for p, Initial residual = 2.07260736555e-06, Final residual = 1.93023960393e-08, No Iterations 87
time step continuity errors : sum local = 1.87408601304e-11, global = 7.07536617582e-19, cumulative = 8.60149495554e-18
DICPCG:  Solving for p, Initial residual = 1.69882684734e-07, Final residual = 1.6509954573e-09, No Iterations 27
time step continuity errors : sum local = 1.82627045551e-12, global = 9.38501566182e-19, cumulative = 9.53999652172e-18
DICPCG:  Solving for p, Initial residual = 2.83843066362e-08, Final residual = 9.69540652326e-13, No Iterations 127
time step continuity errors : sum local = 9.48431667252e-16, global = 6.12154293532e-19, cumulative = 1.01521508153e-17
ExecutionTime = 2.77 s  ClockTime = 30 s

volFieldValue error_velocity_norm write:
    max(region0) of error_velocity_mag = 5.10054450089e-05

volFieldValue L2_error_velocity_norm write:
    sqrt(sum(region0)) of error_velocity_mag_squ = 0.00461913533057

volFieldValue error_pressure_norm write:
    max(region0) of error_pres = 0.000903400393155

Courant Number mean: 0.495161138177 max: 0.610765926391
Time = 0.3

PIMPLE: iteration 1
DILUPBiCGStab:  Solving for Ux, Initial residual = 2.81245913605e-05, Final residual = 2.28711233277e-09, No Iterations 2
DILUPBiCGStab:  Solving for Uy, Initial residual = 2.81245923456e-05, Final residual = 2.28710752902e-09, No Iterations 2
DICPCG:  Solving for p, Initial residual = 4.2345565764e-05, Final residual = 4.18400995377e-07, No Iterations 22
time step continuity errors : sum local = 4.84892313423e-10, global = 3.60035815634e-19, cumulative = 1.05121866309e-17
DICPCG:  Solving for p, Initial residual = 2.15267763214e-06, Final residual = 1.96871440857e-08, No Iterations 87
time step continuity errors : sum local = 1.91120121032e-11, global = 2.62508863596e-19, cumulative = 1.07746954945e-17
DICPCG:  Solving for p, Initial residual = 1.87001429522e-07, Final residual = 1.82878670609e-09, No Iterations 26
time step continuity errors : sum local = 2.02587217849e-12, global = 4.12337648456e-19, cumulative = 1.11870331429e-17
DICPCG:  Solving for p, Initial residual = 3.1314733027e-08, Final residual = 9.361941053e-13, No Iterations 127
time step continuity errors : sum local = 9.14854081628e-16, global = 6.23289855284e-19, cumulative = 1.18103229982e-17
ExecutionTime = 3.06 s  ClockTime = 30 s

volFieldValue error_velocity_norm write:
    max(region0) of error_velocity_mag = 5.10054450089e-05

volFieldValue L2_error_velocity_norm write:
    sqrt(sum(region0)) of error_velocity_mag_squ = 0.00461913533057

volFieldValue error_pressure_norm write:
    max(region0) of error_pres = 0.000903400393155

End

