/*---------------------------------------------------------------------------*\
| =========                 |                                                 |
| \\      /  F ield         | OpenFOAM: The Open Source CFD Toolbox           |
|  \\    /   O peration     | Version:  2406                                  |
|   \\  /    A nd           | Website:  www.openfoam.com                      |
|    \\/     M anipulation  |                                                 |
\*---------------------------------------------------------------------------*/
Build  : _630d60de3b-20240620 OPENFOAM=2406 version=v2406
Arch   : "LSB;label=32;scalar=64"
Exec   : RK4Foam
Date   : Sep 07 2024
Time   : 21:53:51
Host   : hakan-X556UQK
PID    : 14592
I/O    : uncollated
Case   : /home/hakan/courses/testSimulation/tgv2dTests/tgv2d_temporal/RK4Foam/RK4Foam_nu1/TGV_temporal
nProcs : 1
trapFpe: Floating point exception trapping enabled (FOAM_SIGFPE).
fileModificationChecking : Monitoring run-time modified files using timeStampMaster (fileModificationSkew 5, maxFileModificationPolls 20)
allowSystemOperations : Allowing user-supplied system call operations

// * * * * * * * * * * * * * * * * * * * * * * * * * * * * * * * * * * * * * //
Create time

Create mesh for time = 0


PIMPLE: Operating solver in PISO mode

Reading field p

Using #codeStream at line 19 in file "0/p"
Using #codeStream with "/home/hakan/courses/testSimulation/tgv2dTests/tgv2d_temporal/RK4Foam/RK4Foam_nu1/TGV_temporal/dynamicCode/platforms/linux64GccDPInt32Opt/lib/libcodeStream_537564b8bd232f4ddf4797bc6f60eef024868c2e.so"
Reading field U

Using #codeStream at line 19 in file "0/U"
Using #codeStream with "/home/hakan/courses/testSimulation/tgv2dTests/tgv2d_temporal/RK4Foam/RK4Foam_nu1/TGV_temporal/dynamicCode/platforms/linux64GccDPInt32Opt/lib/libcodeStream_18dd48bdf5aea29696d9cbfe8eb27bc690b7dc03.so"
Reading/calculating face flux field phi

Selecting incompressible transport model Newtonian
Selecting turbulence model type laminar
Selecting laminar stress model Stokes
Reading explicit source from transportProperties


 delPx = 0
 delPy = 0
 delPz = 0
No MRF models present

No finite volume options present
Courant Number mean: 0.495184637222 max: 0.610786900035
Courant Number mean: 0.495184637222 max: 0.610786900035

Starting time loop


Define RK4 coeff.

 b1 = 0.166666666667
 b2 = 0.333333333333
 b3 = 0.333333333333
 b4 = 0.166666666667
Using dynamicCode for functionObject diff at line 51 in "/home/hakan/courses/testSimulation/tgv2dTests/tgv2d_temporal/RK4Foam/RK4Foam_nu1/TGV_temporal/system/controlDict/functions/diff"
--> FOAM Warning : 


    From static Foam::autoPtr<Foam::functionObject> Foam::functionObject::New(const Foam::word&, const Foam::Time&, const Foam::dictionary&)
    in file db/functionObjects/functionObject/functionObject.C at line 129.
--> loading function object 'diff'

Courant Number mean: 0.495184637222 max: 0.610786900035
Time = 0.03

time step continuity errors : sum local = 1.59485453514e-13, global = 2.23613386988e-19, cumulative = 2.23613386988e-19
DICPCG:  Solving for p, Initial residual = 0.334136523721, Final residual = 0.00314616823817, No Iterations 35
time step continuity errors : sum local = 2.56288422562e-06, global = -9.86871556874e-20, cumulative = 1.249262313e-19
DICPCG:  Solving for p, Initial residual = 0.0384382123839, Final residual = 0.000357581990996, No Iterations 37
time step continuity errors : sum local = 8.12182965665e-06, global = 3.43847368694e-20, cumulative = 1.5931096817e-19
DICPCG:  Solving for p, Initial residual = 0.475629772481, Final residual = 0.00430483359521, No Iterations 74
time step continuity errors : sum local = 0.000243168653532, global = 4.7991875346e-20, cumulative = 2.07302843516e-19
DICPCG:  Solving for p, Initial residual = 0.72365058337, Final residual = 0.00692483648563, No Iterations 71
ExecutionTime = 0.33 s  ClockTime = 0 s

volFieldValue error_velocity_norm write:
--> FOAM Warning : 
    From Foam::label Foam::functionObjects::fieldValues::volFieldValue::writeAll(const scalarField&, const scalarField&)
    in file fieldValues/volFieldValue/volFieldValue.C at line 160
    Requested field error_velocity_mag not found in database and not processed

volFieldValue L2_error_velocity_norm write:
--> FOAM Warning : 
    From Foam::label Foam::functionObjects::fieldValues::volFieldValue::writeAll(const scalarField&, const scalarField&)
    in file fieldValues/volFieldValue/volFieldValue.C at line 160
    Requested field error_velocity_mag_squ not found in database and not processed

volFieldValue error_pressure_norm write:
--> FOAM Warning : 
    From Foam::label Foam::functionObjects::fieldValues::volFieldValue::writeAll(const scalarField&, const scalarField&)
    in file fieldValues/volFieldValue/volFieldValue.C at line 160
    Requested field error_pres not found in database and not processed

Courant Number mean: 0.466767942137 max: 1.13506753895
Time = 0.06

time step continuity errors : sum local = 0.00189233288213, global = -4.98456387714e-20, cumulative = 1.57457204744e-19
DICPCG:  Solving for p, Initial residual = 0.991539483659, Final residual = 0.00866698920811, No Iterations 71
time step continuity errors : sum local = 0.0560736973361, global = 2.24099400757e-18, cumulative = 2.39845121232e-18
DICPCG:  Solving for p, Initial residual = 0.999401985502, Final residual = 0.00829869232308, No Iterations 70
time step continuity errors : sum local = 1.91757309049, global = -6.4118793252e-17, cumulative = -6.17203420397e-17
DICPCG:  Solving for p, Initial residual = 0.997008534069, Final residual = 0.00961540582721, No Iterations 88
time step continuity errors : sum local = 157.630227264, global = 5.39947732648e-16, cumulative = 4.78227390609e-16
DICPCG:  Solving for p, Initial residual = 0.999586512499, Final residual = 0.00850530042142, No Iterations 90
ExecutionTime = 0.53 s  ClockTime = 0 s

volFieldValue error_velocity_norm write:
--> FOAM Warning : 
    From Foam::label Foam::functionObjects::fieldValues::volFieldValue::writeAll(const scalarField&, const scalarField&)
    in file fieldValues/volFieldValue/volFieldValue.C at line 160
    Requested field error_velocity_mag not found in database and not processed

volFieldValue L2_error_velocity_norm write:
--> FOAM Warning : 
    From Foam::label Foam::functionObjects::fieldValues::volFieldValue::writeAll(const scalarField&, const scalarField&)
    in file fieldValues/volFieldValue/volFieldValue.C at line 160
    Requested field error_velocity_mag_squ not found in database and not processed

volFieldValue error_pressure_norm write:
--> FOAM Warning : 
    From Foam::label Foam::functionObjects::fieldValues::volFieldValue::writeAll(const scalarField&, const scalarField&)
    in file fieldValues/volFieldValue/volFieldValue.C at line 160
    Requested field error_pres not found in database and not processed

Courant Number mean: 715756.053247 max: 1106870688.57
Time = 0.09

time step continuity errors : sum local = 525571.334318, global = -1.57785686225e-11, cumulative = -1.57780903952e-11
DICPCG:  Solving for p, Initial residual = 0.999999993438, Final residual = 0.0083086603581, No Iterations 89
time step continuity errors : sum local = 1.29712541628e+14, global = 0.00669778693893, cumulative = 0.00669778692316
DICPCG:  Solving for p, Initial residual = 1, Final residual = 0.00884370802575, No Iterations 89
time step continuity errors : sum local = 7.12576102489e+30, global = -1.05585755085e+14, cumulative = -1.05585755085e+14
DICPCG:  Solving for p, Initial residual = 1, Final residual = 0.00882595178229, No Iterations 75
time step continuity errors : sum local = 4.19879526918e+64, global = 1.23307863791e+48, cumulative = 1.23307863791e+48
DICPCG:  Solving for p, Initial residual = 1, Final residual = 0.00969128946276, No Iterations 73
ExecutionTime = 0.76 s  ClockTime = 0 s

volFieldValue error_velocity_norm write:
--> FOAM Warning : 
    From Foam::label Foam::functionObjects::fieldValues::volFieldValue::writeAll(const scalarField&, const scalarField&)
    in file fieldValues/volFieldValue/volFieldValue.C at line 160
    Requested field error_velocity_mag not found in database and not processed

volFieldValue L2_error_velocity_norm write:
--> FOAM Warning : 
    From Foam::label Foam::functionObjects::fieldValues::volFieldValue::writeAll(const scalarField&, const scalarField&)
    in file fieldValues/volFieldValue/volFieldValue.C at line 160
    Requested field error_velocity_mag_squ not found in database and not processed

volFieldValue error_pressure_norm write:
--> FOAM Warning : 
    From Foam::label Foam::functionObjects::fieldValues::volFieldValue::writeAll(const scalarField&, const scalarField&)
    in file fieldValues/volFieldValue/volFieldValue.C at line 160
    Requested field error_pres not found in database and not processed

Courant Number mean: 2.59862302469e+131 max: 2.51857208299e+134
Time = 0.12

time step continuity errors : sum local = 1.66693777702e+131, global = 2.77109093075e+114, cumulative = 2.77109093075e+114
