/*---------------------------------------------------------------------------*\
| =========                 |                                                 |
| \\      /  F ield         | OpenFOAM: The Open Source CFD Toolbox           |
|  \\    /   O peration     | Version:  2406                                  |
|   \\  /    A nd           | Website:  www.openfoam.com                      |
|    \\/     M anipulation  |                                                 |
\*---------------------------------------------------------------------------*/
Build  : _630d60de3b-20240620 OPENFOAM=2406 version=v2406
Arch   : "LSB;label=32;scalar=64"
Exec   : pimpleFoam
Date   : Sep 07 2024
Time   : 21:59:56
Host   : hakan-X556UQK
PID    : 17421
I/O    : uncollated
Case   : /home/hakan/courses/testSimulation/tgv2dTests/tgv2d_temporal/pimple/pimple_nu0.0000001/TGV_temporal
nProcs : 1
trapFpe: Floating point exception trapping enabled (FOAM_SIGFPE).
fileModificationChecking : Monitoring run-time modified files using timeStampMaster (fileModificationSkew 5, maxFileModificationPolls 20)
allowSystemOperations : Allowing user-supplied system call operations

// * * * * * * * * * * * * * * * * * * * * * * * * * * * * * * * * * * * * * //
Create time

Create mesh for time = 0


PIMPLE: Operating solver in PISO mode

Reading field p

Using #codeStream at line 19 in file "0/p"
Using #codeStream with "/home/hakan/courses/testSimulation/tgv2dTests/tgv2d_temporal/pimple/pimple_nu0.0000001/TGV_temporal/dynamicCode/platforms/linux64GccDPInt32Opt/lib/libcodeStream_537564b8bd232f4ddf4797bc6f60eef024868c2e.so"
Creating new library in "dynamicCode/_537564b8bd232f4ddf4797bc6f60eef024868c2e/platforms/linux64GccDPInt32Opt/lib/libcodeStream_537564b8bd232f4ddf4797bc6f60eef024868c2e.so"
Invoking wmake libso /home/hakan/courses/testSimulation/tgv2dTests/tgv2d_temporal/pimple/pimple_nu0.0000001/TGV_temporal/dynamicCode/_537564b8bd232f4ddf4797bc6f60eef024868c2e
wmake libso /home/hakan/courses/testSimulation/tgv2dTests/tgv2d_temporal/pimple/pimple_nu0.0000001/TGV_temporal/dynamicCode/_537564b8bd232f4ddf4797bc6f60eef024868c2e
    dep: codeStreamTemplate.C
    Ctoo: codeStreamTemplate.C
    link: /home/hakan/courses/testSimulation/tgv2dTests/tgv2d_temporal/pimple/pimple_nu0.0000001/TGV_temporal/dynamicCode/_537564b8bd232f4ddf4797bc6f60eef024868c2e/../platforms/linux64GccDPInt32Opt/lib/libcodeStream_537564b8bd232f4ddf4797bc6f60eef024868c2e.so
Reading field U

Using #codeStream at line 19 in file "0/U"
Using #codeStream with "/home/hakan/courses/testSimulation/tgv2dTests/tgv2d_temporal/pimple/pimple_nu0.0000001/TGV_temporal/dynamicCode/platforms/linux64GccDPInt32Opt/lib/libcodeStream_18dd48bdf5aea29696d9cbfe8eb27bc690b7dc03.so"
Creating new library in "dynamicCode/_18dd48bdf5aea29696d9cbfe8eb27bc690b7dc03/platforms/linux64GccDPInt32Opt/lib/libcodeStream_18dd48bdf5aea29696d9cbfe8eb27bc690b7dc03.so"
Invoking wmake libso /home/hakan/courses/testSimulation/tgv2dTests/tgv2d_temporal/pimple/pimple_nu0.0000001/TGV_temporal/dynamicCode/_18dd48bdf5aea29696d9cbfe8eb27bc690b7dc03
wmake libso /home/hakan/courses/testSimulation/tgv2dTests/tgv2d_temporal/pimple/pimple_nu0.0000001/TGV_temporal/dynamicCode/_18dd48bdf5aea29696d9cbfe8eb27bc690b7dc03
    dep: codeStreamTemplate.C
    Ctoo: codeStreamTemplate.C
    link: /home/hakan/courses/testSimulation/tgv2dTests/tgv2d_temporal/pimple/pimple_nu0.0000001/TGV_temporal/dynamicCode/_18dd48bdf5aea29696d9cbfe8eb27bc690b7dc03/../platforms/linux64GccDPInt32Opt/lib/libcodeStream_18dd48bdf5aea29696d9cbfe8eb27bc690b7dc03.so
Reading/calculating face flux field phi

Selecting incompressible transport model Newtonian
Selecting turbulence model type laminar
Selecting laminar stress model Stokes
No MRF models present

No finite volume options present
Courant Number mean: 0.123796159305 max: 0.152696725009
Courant Number mean: 0.123796159305 max: 0.152696725009

Starting time loop

Using dynamicCode for functionObject diff at line 51 in "/home/hakan/courses/testSimulation/tgv2dTests/tgv2d_temporal/pimple/pimple_nu0.0000001/TGV_temporal/system/controlDict/functions/diff"
Creating new library in "dynamicCode/diff/platforms/linux64GccDPInt32Opt/lib/libdiff_d924c92ec3fe0b16fec6b8892a9fc1c20fa93dd8.so"
Invoking wmake libso /home/hakan/courses/testSimulation/tgv2dTests/tgv2d_temporal/pimple/pimple_nu0.0000001/TGV_temporal/dynamicCode/diff
wmake libso /home/hakan/courses/testSimulation/tgv2dTests/tgv2d_temporal/pimple/pimple_nu0.0000001/TGV_temporal/dynamicCode/diff
    dep: functionObjectTemplate.C
    Ctoo: functionObjectTemplate.C
    link: /home/hakan/courses/testSimulation/tgv2dTests/tgv2d_temporal/pimple/pimple_nu0.0000001/TGV_temporal/dynamicCode/diff/../platforms/linux64GccDPInt32Opt/lib/libdiff_d924c92ec3fe0b16fec6b8892a9fc1c20fa93dd8.so
Courant Number mean: 0.123796159305 max: 0.152696725009
Time = 0.0075

PIMPLE: iteration 1
DILUPBiCGStab:  Solving for Ux, Initial residual = 1.77348108698e-06, Final residual = 4.08393805061e-09, No Iterations 1
DILUPBiCGStab:  Solving for Uy, Initial residual = 1.77348108701e-06, Final residual = 4.08393933625e-09, No Iterations 1
DICPCG:  Solving for p, Initial residual = 0.000903968830154, Final residual = 8.51259044289e-06, No Iterations 35
time step continuity errors : sum local = 7.92064244828e-10, global = -3.23625873557e-20, cumulative = -3.23625873557e-20
DICPCG:  Solving for p, Initial residual = 1.17511330644e-05, Final residual = 1.13205215182e-07, No Iterations 78
time step continuity errors : sum local = 1.0321560385e-11, global = -1.58344770327e-20, cumulative = -4.81970643884e-20
DICPCG:  Solving for p, Initial residual = 2.86267866826e-07, Final residual = 2.48270593081e-09, No Iterations 44
time step continuity errors : sum local = 2.25571582142e-13, global = -1.3923217325e-20, cumulative = -6.21202817134e-20
DICPCG:  Solving for p, Initial residual = 1.06009093836e-08, Final residual = 8.54543745558e-13, No Iterations 117
time step continuity errors : sum local = 7.93416798405e-17, global = 2.4174982013e-20, cumulative = -3.79452997004e-20
ExecutionTime = 0.34 s  ClockTime = 26 s

    Reading error_velocity_mag (volScalarField)
    Reading error_velocity_mag_squ (volScalarField)
    Reading error_pres (volScalarField)
volFieldValue error_velocity_norm write:
    max(region0) of error_velocity_mag = 1.27423432951e-05

volFieldValue L2_error_velocity_norm write:
    sqrt(sum(region0)) of error_velocity_mag_squ = 0.00115452210217

volFieldValue error_pressure_norm write:
    max(region0) of error_pres = 0.000902243733282

Courant Number mean: 0.123796150198 max: 0.152696716512
Time = 0.015

PIMPLE: iteration 1
DILUPBiCGStab:  Solving for Ux, Initial residual = 7.08514965597e-06, Final residual = 3.8011038972e-10, No Iterations 1
DILUPBiCGStab:  Solving for Uy, Initial residual = 7.08514965106e-06, Final residual = 3.80110361995e-10, No Iterations 1
DICPCG:  Solving for p, Initial residual = 8.99942290448e-06, Final residual = 8.23589971907e-08, No Iterations 12
time step continuity errors : sum local = 7.96656567817e-12, global = -3.18984069335e-20, cumulative = -6.98437066339e-20
DICPCG:  Solving for p, Initial residual = 1.63304008745e-07, Final residual = 1.51783663737e-09, No Iterations 75
time step continuity errors : sum local = 1.38193537291e-13, global = 3.85680114726e-20, cumulative = -3.12756951613e-20
DICPCG:  Solving for p, Initial residual = 5.45136127835e-09, Final residual = 5.09921571711e-11, No Iterations 33
time step continuity errors : sum local = 4.74986112685e-15, global = 2.88328623894e-21, cumulative = -2.83924089224e-20
DICPCG:  Solving for p, Initial residual = 2.85477257467e-10, Final residual = 9.22214044704e-13, No Iterations 96
time step continuity errors : sum local = 8.49433742561e-17, global = 4.18268614563e-21, cumulative = -2.42097227767e-20
ExecutionTime = 0.6 s  ClockTime = 26 s

volFieldValue error_velocity_norm write:
    max(region0) of error_velocity_mag = 1.27423432951e-05

volFieldValue L2_error_velocity_norm write:
    sqrt(sum(region0)) of error_velocity_mag_squ = 0.00115452210217

volFieldValue error_pressure_norm write:
    max(region0) of error_pres = 0.000902243733282

Courant Number mean: 0.123796132168 max: 0.15269669974
Time = 0.0225

PIMPLE: iteration 1
DILUPBiCGStab:  Solving for Ux, Initial residual = 7.08461485779e-06, Final residual = 3.80449142959e-10, No Iterations 1
DILUPBiCGStab:  Solving for Uy, Initial residual = 7.08461485749e-06, Final residual = 3.80449231507e-10, No Iterations 1
DICPCG:  Solving for p, Initial residual = 9.05198558621e-06, Final residual = 8.09849867739e-08, No Iterations 12
time step continuity errors : sum local = 8.01648058207e-12, global = 2.68771823828e-20, cumulative = 2.66745960603e-21
DICPCG:  Solving for p, Initial residual = 1.62590860864e-07, Final residual = 1.56437858576e-09, No Iterations 85
time step continuity errors : sum local = 1.42552809004e-13, global = 7.13390260656e-20, cumulative = 7.40064856716e-20
DICPCG:  Solving for p, Initial residual = 5.61559533553e-09, Final residual = 5.23593782761e-11, No Iterations 33
time step continuity errors : sum local = 4.9515312611e-15, global = 3.36654843044e-20, cumulative = 1.07671969976e-19
DICPCG:  Solving for p, Initial residual = 3.13650076619e-10, Final residual = 9.13405367189e-13, No Iterations 89
time step continuity errors : sum local = 8.44656276906e-17, global = 6.01328094101e-20, cumulative = 1.67804779386e-19
ExecutionTime = 0.84 s  ClockTime = 26 s

volFieldValue error_velocity_norm write:
    max(region0) of error_velocity_mag = 1.27423432951e-05

volFieldValue L2_error_velocity_norm write:
    sqrt(sum(region0)) of error_velocity_mag_squ = 0.00115452210217

volFieldValue error_pressure_norm write:
    max(region0) of error_pres = 0.000902243733282

Courant Number mean: 0.123796105218 max: 0.152696674698
Time = 0.03

PIMPLE: iteration 1
DILUPBiCGStab:  Solving for Ux, Initial residual = 7.08346651508e-06, Final residual = 3.80707387926e-10, No Iterations 1
DILUPBiCGStab:  Solving for Uy, Initial residual = 7.0834665148e-06, Final residual = 3.80707478935e-10, No Iterations 1
DICPCG:  Solving for p, Initial residual = 9.11696943881e-06, Final residual = 7.29894195205e-08, No Iterations 13
time step continuity errors : sum local = 7.42473929709e-12, global = 7.2979834673e-20, cumulative = 2.40784614059e-19
DICPCG:  Solving for p, Initial residual = 1.582345336e-07, Final residual = 1.56902774711e-09, No Iterations 86
time step continuity errors : sum local = 1.42986958826e-13, global = 4.47800605116e-20, cumulative = 2.85564674571e-19
DICPCG:  Solving for p, Initial residual = 5.69910410612e-09, Final residual = 5.46603822312e-11, No Iterations 33
time step continuity errors : sum local = 5.33559007173e-15, global = 7.56364751484e-20, cumulative = 3.61201149719e-19
DICPCG:  Solving for p, Initial residual = 3.0992044948e-10, Final residual = 8.01968954339e-13, No Iterations 98
time step continuity errors : sum local = 7.44570771695e-17, global = -1.8696309553e-20, cumulative = 3.42504840166e-19
ExecutionTime = 1.07 s  ClockTime = 27 s

volFieldValue error_velocity_norm write:
    max(region0) of error_velocity_mag = 1.27423432951e-05

volFieldValue L2_error_velocity_norm write:
    sqrt(sum(region0)) of error_velocity_mag_squ = 0.00115452210217

volFieldValue error_pressure_norm write:
    max(region0) of error_pres = 0.000902243733282

Courant Number mean: 0.12379606935 max: 0.152696641485
Time = 0.0375

PIMPLE: iteration 1
DILUPBiCGStab:  Solving for Ux, Initial residual = 7.08170593953e-06, Final residual = 3.80885232357e-10, No Iterations 1
DILUPBiCGStab:  Solving for Uy, Initial residual = 7.08170593988e-06, Final residual = 3.80885324965e-10, No Iterations 1
DICPCG:  Solving for p, Initial residual = 9.1875319273e-06, Final residual = 7.60563917768e-08, No Iterations 14
time step continuity errors : sum local = 7.84136518416e-12, global = -1.53268912139e-20, cumulative = 3.27177948952e-19
DICPCG:  Solving for p, Initial residual = 1.61369571532e-07, Final residual = 1.36218680774e-09, No Iterations 87
time step continuity errors : sum local = 1.24207593771e-13, global = 4.823839228e-20, cumulative = 3.75416341232e-19
DICPCG:  Solving for p, Initial residual = 5.95402892713e-09, Final residual = 5.79168405912e-11, No Iterations 32
time step continuity errors : sum local = 5.55676620709e-15, global = 1.03072623071e-19, cumulative = 4.78488964303e-19
DICPCG:  Solving for p, Initial residual = 3.32752562999e-10, Final residual = 9.11665248083e-13, No Iterations 97
time step continuity errors : sum local = 8.42217104713e-17, global = -1.2273401416e-20, cumulative = 4.66215562887e-19
ExecutionTime = 1.32 s  ClockTime = 27 s

volFieldValue error_velocity_norm write:
    max(region0) of error_velocity_mag = 1.27423432951e-05

volFieldValue L2_error_velocity_norm write:
    sqrt(sum(region0)) of error_velocity_mag_squ = 0.00115452210217

volFieldValue error_pressure_norm write:
    max(region0) of error_pres = 0.000902243733282

Courant Number mean: 0.123796024568 max: 0.152696600521
Time = 0.045

PIMPLE: iteration 1
DILUPBiCGStab:  Solving for Ux, Initial residual = 7.07933560056e-06, Final residual = 3.80983108917e-10, No Iterations 1
DILUPBiCGStab:  Solving for Uy, Initial residual = 7.0793356003e-06, Final residual = 3.80983204122e-10, No Iterations 1
DICPCG:  Solving for p, Initial residual = 9.2624767186e-06, Final residual = 8.35632964342e-08, No Iterations 17
time step continuity errors : sum local = 8.64797832302e-12, global = 6.59626913309e-20, cumulative = 5.32178254218e-19
DICPCG:  Solving for p, Initial residual = 1.88352628676e-07, Final residual = 1.56983042836e-09, No Iterations 87
time step continuity errors : sum local = 1.42666986162e-13, global = 6.98020257161e-20, cumulative = 6.01980279934e-19
DICPCG:  Solving for p, Initial residual = 6.4433236325e-09, Final residual = 5.88411466627e-11, No Iterations 33
time step continuity errors : sum local = 5.99367018544e-15, global = 9.53548653311e-20, cumulative = 6.97335145265e-19
DICPCG:  Solving for p, Initial residual = 3.69321767053e-10, Final residual = 8.15012080306e-13, No Iterations 98
time step continuity errors : sum local = 7.56353674494e-17, global = 9.96030476365e-21, cumulative = 7.07295450029e-19
ExecutionTime = 1.55 s  ClockTime = 27 s

volFieldValue error_velocity_norm write:
    max(region0) of error_velocity_mag = 1.27423432951e-05

volFieldValue L2_error_velocity_norm write:
    sqrt(sum(region0)) of error_velocity_mag_squ = 0.00115452210217

volFieldValue error_pressure_norm write:
    max(region0) of error_pres = 0.000902243733282

Courant Number mean: 0.123795970876 max: 0.152696551773
Time = 0.0525

PIMPLE: iteration 1
DILUPBiCGStab:  Solving for Ux, Initial residual = 7.07635910338e-06, Final residual = 3.81001665068e-10, No Iterations 1
DILUPBiCGStab:  Solving for Uy, Initial residual = 7.07635910371e-06, Final residual = 3.81001759306e-10, No Iterations 1
DICPCG:  Solving for p, Initial residual = 9.34062596871e-06, Final residual = 8.69078527681e-08, No Iterations 18
time step continuity errors : sum local = 9.07484168061e-12, global = 4.25615581482e-20, cumulative = 7.49857008177e-19
DICPCG:  Solving for p, Initial residual = 2.02711350171e-07, Final residual = 1.69857401524e-09, No Iterations 87
time step continuity errors : sum local = 1.54614268396e-13, global = 4.36084225912e-20, cumulative = 7.93465430768e-19
DICPCG:  Solving for p, Initial residual = 6.8307133096e-09, Final residual = 6.70619805568e-11, No Iterations 33
time step continuity errors : sum local = 6.60916237023e-15, global = 3.47982057104e-21, cumulative = 7.96945251339e-19
DICPCG:  Solving for p, Initial residual = 3.84939553059e-10, Final residual = 8.68959133282e-13, No Iterations 98
time step continuity errors : sum local = 8.02637051549e-17, global = 4.74575480966e-20, cumulative = 8.44402799436e-19
ExecutionTime = 1.8 s  ClockTime = 27 s

volFieldValue error_velocity_norm write:
    max(region0) of error_velocity_mag = 1.27423432951e-05

volFieldValue L2_error_velocity_norm write:
    sqrt(sum(region0)) of error_velocity_mag_squ = 0.00115452210217

volFieldValue error_pressure_norm write:
    max(region0) of error_pres = 0.000902243733282

Courant Number mean: 0.12379590828 max: 0.152696495361
Time = 0.06

PIMPLE: iteration 1
DILUPBiCGStab:  Solving for Ux, Initial residual = 7.07303311719e-06, Final residual = 3.81133385071e-10, No Iterations 1
DILUPBiCGStab:  Solving for Uy, Initial residual = 7.0730331176e-06, Final residual = 3.81133480263e-10, No Iterations 1
DICPCG:  Solving for p, Initial residual = 9.42109372441e-06, Final residual = 9.27222005061e-08, No Iterations 19
time step continuity errors : sum local = 9.7201634422e-12, global = 5.32610926404e-20, cumulative = 8.97663892076e-19
DICPCG:  Solving for p, Initial residual = 2.09244745204e-07, Final residual = 1.75433735294e-09, No Iterations 87
time step continuity errors : sum local = 1.59593658213e-13, global = 3.72046485132e-20, cumulative = 9.3486854059e-19
DICPCG:  Solving for p, Initial residual = 7.34750897551e-09, Final residual = 6.66688203523e-11, No Iterations 34
time step continuity errors : sum local = 6.65693737495e-15, global = 6.59972389651e-20, cumulative = 1.00086577955e-18
DICPCG:  Solving for p, Initial residual = 4.11244961044e-10, Final residual = 9.72646157987e-13, No Iterations 98
time step continuity errors : sum local = 8.95938513374e-17, global = 1.66486050201e-20, cumulative = 1.01751438457e-18
ExecutionTime = 2.05 s  ClockTime = 28 s

volFieldValue error_velocity_norm write:
    max(region0) of error_velocity_mag = 1.27423432951e-05

volFieldValue L2_error_velocity_norm write:
    sqrt(sum(region0)) of error_velocity_mag_squ = 0.00115452210217

volFieldValue error_pressure_norm write:
    max(region0) of error_pres = 0.000902243733282

Courant Number mean: 0.123795836784 max: 0.152696431401
Time = 0.0675

PIMPLE: iteration 1
DILUPBiCGStab:  Solving for Ux, Initial residual = 7.06997487963e-06, Final residual = 3.82686957895e-10, No Iterations 1
DILUPBiCGStab:  Solving for Uy, Initial residual = 7.06997488078e-06, Final residual = 3.82687058487e-10, No Iterations 1
DICPCG:  Solving for p, Initial residual = 9.50367733395e-06, Final residual = 9.17309937453e-08, No Iterations 20
time step continuity errors : sum local = 9.76165852754e-12, global = 1.00934829973e-19, cumulative = 1.11844921455e-18
DICPCG:  Solving for p, Initial residual = 2.17679002956e-07, Final residual = 1.92759087249e-09, No Iterations 87
time step continuity errors : sum local = 1.7506094214e-13, global = 2.88554596728e-20, cumulative = 1.14730467422e-18
DICPCG:  Solving for p, Initial residual = 7.69128253461e-09, Final residual = 7.16248766519e-11, No Iterations 34
time step continuity errors : sum local = 7.36189156079e-15, global = 8.63882483906e-20, cumulative = 1.23369292261e-18
DICPCG:  Solving for p, Initial residual = 4.46297488007e-10, Final residual = 7.78589072028e-13, No Iterations 99
time step continuity errors : sum local = 7.23816051681e-17, global = 1.13287696954e-19, cumulative = 1.34698061956e-18
ExecutionTime = 2.29 s  ClockTime = 28 s

volFieldValue error_velocity_norm write:
    max(region0) of error_velocity_mag = 1.27423432951e-05

volFieldValue L2_error_velocity_norm write:
    sqrt(sum(region0)) of error_velocity_mag_squ = 0.00115452210217

volFieldValue error_pressure_norm write:
    max(region0) of error_pres = 0.000902243733282

Courant Number mean: 0.123795756398 max: 0.152696360003
Time = 0.075

PIMPLE: iteration 1
DILUPBiCGStab:  Solving for Ux, Initial residual = 7.06685712763e-06, Final residual = 3.85213880013e-10, No Iterations 1
DILUPBiCGStab:  Solving for Uy, Initial residual = 7.06685713047e-06, Final residual = 3.85213988004e-10, No Iterations 1
DICPCG:  Solving for p, Initial residual = 9.58852378208e-06, Final residual = 8.98829302113e-08, No Iterations 21
time step continuity errors : sum local = 9.68474719491e-12, global = 8.26925772511e-20, cumulative = 1.42967319682e-18
DICPCG:  Solving for p, Initial residual = 2.18645140873e-07, Final residual = 2.07378067778e-09, No Iterations 87
time step continuity errors : sum local = 1.88657810311e-13, global = 6.78703458462e-20, cumulative = 1.49754354266e-18
DICPCG:  Solving for p, Initial residual = 7.91836381606e-09, Final residual = 7.35073109725e-11, No Iterations 34
time step continuity errors : sum local = 7.24899028435e-15, global = 1.15910612425e-19, cumulative = 1.61345415509e-18
DICPCG:  Solving for p, Initial residual = 4.49353057989e-10, Final residual = 9.88372966318e-13, No Iterations 98
time step continuity errors : sum local = 9.12363842981e-17, global = 1.18846097888e-19, cumulative = 1.73230025297e-18
ExecutionTime = 2.55 s  ClockTime = 28 s

volFieldValue error_velocity_norm write:
    max(region0) of error_velocity_mag = 1.27423432951e-05

volFieldValue L2_error_velocity_norm write:
    sqrt(sum(region0)) of error_velocity_mag_squ = 0.00115452210217

volFieldValue error_pressure_norm write:
    max(region0) of error_pres = 0.000902243733282

Courant Number mean: 0.123795667128 max: 0.152696281273
Time = 0.0825

PIMPLE: iteration 1
DILUPBiCGStab:  Solving for Ux, Initial residual = 7.06328557747e-06, Final residual = 3.87727466889e-10, No Iterations 1
DILUPBiCGStab:  Solving for Uy, Initial residual = 7.06328557991e-06, Final residual = 3.87727573492e-10, No Iterations 1
DICPCG:  Solving for p, Initial residual = 9.67528422754e-06, Final residual = 9.29003918222e-08, No Iterations 25
time step continuity errors : sum local = 1.00410059334e-11, global = 1.75897234617e-19, cumulative = 1.90819748759e-18
DICPCG:  Solving for p, Initial residual = 2.00024701102e-07, Final residual = 1.96914986862e-09, No Iterations 84
time step continuity errors : sum local = 1.7961928983e-13, global = 1.20150762778e-19, cumulative = 2.02834825037e-18
DICPCG:  Solving for p, Initial residual = 8.11469856296e-09, Final residual = 7.96605880663e-11, No Iterations 43
time step continuity errors : sum local = 8.04981875732e-15, global = 7.28107128064e-20, cumulative = 2.10115896318e-18
DICPCG:  Solving for p, Initial residual = 4.70925314555e-10, Final residual = 8.65120641888e-13, No Iterations 92
time step continuity errors : sum local = 8.02434522108e-17, global = 3.40211959182e-20, cumulative = 2.13518015909e-18
ExecutionTime = 2.81 s  ClockTime = 28 s

volFieldValue error_velocity_norm write:
    max(region0) of error_velocity_mag = 1.27423432951e-05

volFieldValue L2_error_velocity_norm write:
    sqrt(sum(region0)) of error_velocity_mag_squ = 0.00115452210217

volFieldValue error_pressure_norm write:
    max(region0) of error_pres = 0.000902243733282

Courant Number mean: 0.123795568984 max: 0.15269619531
Time = 0.09

PIMPLE: iteration 1
DILUPBiCGStab:  Solving for Ux, Initial residual = 7.05918862009e-06, Final residual = 3.90194725821e-10, No Iterations 1
DILUPBiCGStab:  Solving for Uy, Initial residual = 7.05918862148e-06, Final residual = 3.90194833944e-10, No Iterations 1
DICPCG:  Solving for p, Initial residual = 9.7638058308e-06, Final residual = 8.67313121981e-08, No Iterations 26
time step continuity errors : sum local = 9.58485708374e-12, global = 6.02412418757e-20, cumulative = 2.19542140097e-18
DICPCG:  Solving for p, Initial residual = 1.99618208664e-07, Final residual = 1.81309458584e-09, No Iterations 85
time step continuity errors : sum local = 1.65297334511e-13, global = 6.15275619531e-20, cumulative = 2.25694896292e-18
DICPCG:  Solving for p, Initial residual = 8.0906129164e-09, Final residual = 8.07589760173e-11, No Iterations 39
time step continuity errors : sum local = 8.09284194186e-15, global = 5.25626312052e-20, cumulative = 2.30951159413e-18
DICPCG:  Solving for p, Initial residual = 4.85250715285e-10, Final residual = 8.60954700022e-13, No Iterations 99
time step continuity errors : sum local = 7.98047436318e-17, global = 6.74046541588e-20, cumulative = 2.37691624829e-18
ExecutionTime = 3.05 s  ClockTime = 29 s

volFieldValue error_velocity_norm write:
    max(region0) of error_velocity_mag = 1.27423432951e-05

volFieldValue L2_error_velocity_norm write:
    sqrt(sum(region0)) of error_velocity_mag_squ = 0.00115452210217

volFieldValue error_pressure_norm write:
    max(region0) of error_pres = 0.000902243733282

Courant Number mean: 0.123795461975 max: 0.152696102204
Time = 0.0975

PIMPLE: iteration 1
DILUPBiCGStab:  Solving for Ux, Initial residual = 7.05456784732e-06, Final residual = 3.92604008778e-10, No Iterations 1
DILUPBiCGStab:  Solving for Uy, Initial residual = 7.05456784977e-06, Final residual = 3.92604116294e-10, No Iterations 1
DICPCG:  Solving for p, Initial residual = 9.85331894702e-06, Final residual = 9.2279337766e-08, No Iterations 26
time step continuity errors : sum local = 1.0201132799e-11, global = 7.84433004683e-20, cumulative = 2.45535954876e-18
DICPCG:  Solving for p, Initial residual = 2.06024451514e-07, Final residual = 1.98406076679e-09, No Iterations 80
time step continuity errors : sum local = 1.80806893728e-13, global = 7.23077969911e-20, cumulative = 2.52766734575e-18
DICPCG:  Solving for p, Initial residual = 8.69288425788e-09, Final residual = 8.35502191964e-11, No Iterations 38
time step continuity errors : sum local = 8.38841468169e-15, global = -5.38747273361e-20, cumulative = 2.47379261841e-18
DICPCG:  Solving for p, Initial residual = 5.06383704957e-10, Final residual = 8.90076851981e-13, No Iterations 100
time step continuity errors : sum local = 8.23104114498e-17, global = -3.65812914032e-20, cumulative = 2.43721132701e-18
ExecutionTime = 3.29 s  ClockTime = 29 s

volFieldValue error_velocity_norm write:
    max(region0) of error_velocity_mag = 1.27423432951e-05

volFieldValue L2_error_velocity_norm write:
    sqrt(sum(region0)) of error_velocity_mag_squ = 0.00115452210217

volFieldValue error_pressure_norm write:
    max(region0) of error_pres = 0.000902243733282

Courant Number mean: 0.123795346112 max: 0.15269600204
Time = 0.105

PIMPLE: iteration 1
DILUPBiCGStab:  Solving for Ux, Initial residual = 7.04942341864e-06, Final residual = 3.94956624722e-10, No Iterations 1
DILUPBiCGStab:  Solving for Uy, Initial residual = 7.04942342064e-06, Final residual = 3.94956732883e-10, No Iterations 1
DICPCG:  Solving for p, Initial residual = 9.94363738173e-06, Final residual = 9.77047783361e-08, No Iterations 26
time step continuity errors : sum local = 1.08019897127e-11, global = 1.17469566261e-19, cumulative = 2.55468089327e-18
DICPCG:  Solving for p, Initial residual = 2.1263832624e-07, Final residual = 2.04977118828e-09, No Iterations 82
time step continuity errors : sum local = 1.87068922514e-13, global = 5.10263733604e-20, cumulative = 2.60570726663e-18
DICPCG:  Solving for p, Initial residual = 9.19325367128e-09, Final residual = 9.17650392055e-11, No Iterations 42
time step continuity errors : sum local = 9.16355590882e-15, global = 7.28709236909e-20, cumulative = 2.67857819032e-18
DICPCG:  Solving for p, Initial residual = 5.39482221773e-10, Final residual = 9.31269371465e-13, No Iterations 99
time step continuity errors : sum local = 8.61056877386e-17, global = 3.92190983336e-20, cumulative = 2.71779728865e-18
ExecutionTime = 3.55 s  ClockTime = 29 s

volFieldValue error_velocity_norm write:
    max(region0) of error_velocity_mag = 1.27423432951e-05

volFieldValue L2_error_velocity_norm write:
    sqrt(sum(region0)) of error_velocity_mag_squ = 0.00115452210217

volFieldValue error_pressure_norm write:
    max(region0) of error_pres = 0.000902243733282

Courant Number mean: 0.123795221406 max: 0.152695895019
Time = 0.1125

PIMPLE: iteration 1
DILUPBiCGStab:  Solving for Ux, Initial residual = 7.04375453185e-06, Final residual = 3.97245929109e-10, No Iterations 1
DILUPBiCGStab:  Solving for Uy, Initial residual = 7.04375453335e-06, Final residual = 3.97246037794e-10, No Iterations 1
DICPCG:  Solving for p, Initial residual = 1.00343100102e-05, Final residual = 9.08158192037e-08, No Iterations 27
time step continuity errors : sum local = 1.02258239218e-11, global = 4.3524718477e-20, cumulative = 2.76132200713e-18
DICPCG:  Solving for p, Initial residual = 2.08531496292e-07, Final residual = 2.07769241912e-09, No Iterations 86
time step continuity errors : sum local = 1.89131026868e-13, global = 1.64493056947e-20, cumulative = 2.77777131282e-18
DICPCG:  Solving for p, Initial residual = 9.47451032852e-09, Final residual = 9.10509455055e-11, No Iterations 34
time step continuity errors : sum local = 9.07140304613e-15, global = -3.471900455e-20, cumulative = 2.74305230827e-18
DICPCG:  Solving for p, Initial residual = 5.46405874863e-10, Final residual = 8.0154433686e-13, No Iterations 99
time step continuity errors : sum local = 7.44403661489e-17, global = 2.73131485162e-20, cumulative = 2.77036545679e-18
ExecutionTime = 3.79 s  ClockTime = 29 s

volFieldValue error_velocity_norm write:
    max(region0) of error_velocity_mag = 1.27423432951e-05

volFieldValue L2_error_velocity_norm write:
    sqrt(sum(region0)) of error_velocity_mag_squ = 0.00115452210217

volFieldValue error_pressure_norm write:
    max(region0) of error_pres = 0.000902243733282

Courant Number mean: 0.12379508787 max: 0.152695782495
Time = 0.12

PIMPLE: iteration 1
DILUPBiCGStab:  Solving for Ux, Initial residual = 7.03756713951e-06, Final residual = 3.99478652316e-10, No Iterations 1
DILUPBiCGStab:  Solving for Uy, Initial residual = 7.03756714157e-06, Final residual = 3.99478761214e-10, No Iterations 1
DICPCG:  Solving for p, Initial residual = 1.01247832667e-05, Final residual = 9.53515818207e-08, No Iterations 27
time step continuity errors : sum local = 1.07338250887e-11, global = -2.00281577361e-20, cumulative = 2.75033729905e-18
DICPCG:  Solving for p, Initial residual = 2.14455114441e-07, Final residual = 2.02177686626e-09, No Iterations 85
time step continuity errors : sum local = 1.8420441185e-13, global = -3.83490925121e-20, cumulative = 2.71198820654e-18
DICPCG:  Solving for p, Initial residual = 9.85757521124e-09, Final residual = 9.78947704227e-11, No Iterations 34
time step continuity errors : sum local = 9.72279607734e-15, global = 2.64510550826e-20, cumulative = 2.73843926162e-18
DICPCG:  Solving for p, Initial residual = 5.71282396098e-10, Final residual = 8.6863091183e-13, No Iterations 99
time step continuity errors : sum local = 8.05428631438e-17, global = 3.0246961568e-20, cumulative = 2.76868622319e-18
ExecutionTime = 4.03 s  ClockTime = 30 s

volFieldValue error_velocity_norm write:
    max(region0) of error_velocity_mag = 1.27423432951e-05

volFieldValue L2_error_velocity_norm write:
    sqrt(sum(region0)) of error_velocity_mag_squ = 0.00115452210217

volFieldValue error_pressure_norm write:
    max(region0) of error_pres = 0.000902243733282

Courant Number mean: 0.123794945516 max: 0.152695663512
Time = 0.1275

PIMPLE: iteration 1
DILUPBiCGStab:  Solving for Ux, Initial residual = 7.03089018507e-06, Final residual = 4.01648832243e-10, No Iterations 1
DILUPBiCGStab:  Solving for Uy, Initial residual = 7.03089018729e-06, Final residual = 4.01648941928e-10, No Iterations 1
DICPCG:  Solving for p, Initial residual = 1.02153563131e-05, Final residual = 9.97826025885e-08, No Iterations 27
time step continuity errors : sum local = 1.12276811309e-11, global = 1.10617285953e-19, cumulative = 2.87930350915e-18
DICPCG:  Solving for p, Initial residual = 2.20480335945e-07, Final residual = 1.82242215088e-09, No Iterations 85
time step continuity errors : sum local = 1.66126512235e-13, global = 5.47810165578e-20, cumulative = 2.9340845257e-18
DICPCG:  Solving for p, Initial residual = 1.02093464012e-08, Final residual = 9.86498846941e-11, No Iterations 33
time step continuity errors : sum local = 9.82632591889e-15, global = 1.02850028975e-19, cumulative = 3.03693455468e-18
DICPCG:  Solving for p, Initial residual = 5.97244472898e-10, Final residual = 9.05189143249e-13, No Iterations 98
time step continuity errors : sum local = 8.36770457354e-17, global = 3.87744730655e-20, cumulative = 3.07570902774e-18
ExecutionTime = 4.29 s  ClockTime = 30 s

volFieldValue error_velocity_norm write:
    max(region0) of error_velocity_mag = 1.27423432951e-05

volFieldValue L2_error_velocity_norm write:
    sqrt(sum(region0)) of error_velocity_mag_squ = 0.00115452210217

volFieldValue error_pressure_norm write:
    max(region0) of error_pres = 0.000902243733282

Courant Number mean: 0.123794794359 max: 0.152695538152
Time = 0.135

PIMPLE: iteration 1
DILUPBiCGStab:  Solving for Ux, Initial residual = 7.0237092081e-06, Final residual = 4.03763332116e-10, No Iterations 1
DILUPBiCGStab:  Solving for Uy, Initial residual = 7.02370920947e-06, Final residual = 4.03763442665e-10, No Iterations 1
DICPCG:  Solving for p, Initial residual = 1.03054403697e-05, Final residual = 1.008631938e-07, No Iterations 28
time step continuity errors : sum local = 1.14330465282e-11, global = 3.60560555796e-20, cumulative = 3.11176508332e-18
DICPCG:  Solving for p, Initial residual = 2.23923306886e-07, Final residual = 2.01855604363e-09, No Iterations 87
time step continuity errors : sum local = 1.83414117815e-13, global = 1.24354020639e-19, cumulative = 3.23611910396e-18
DICPCG:  Solving for p, Initial residual = 1.05896493068e-08, Final residual = 9.9345253577e-11, No Iterations 33
time step continuity errors : sum local = 1.0067460369e-14, global = 4.80320305787e-20, cumulative = 3.28415113454e-18
DICPCG:  Solving for p, Initial residual = 6.23086374557e-10, Final residual = 9.04544779823e-13, No Iterations 98
time step continuity errors : sum local = 8.37192308391e-17, global = 9.23427049204e-20, cumulative = 3.37649383946e-18
ExecutionTime = 4.56 s  ClockTime = 30 s

volFieldValue error_velocity_norm write:
    max(region0) of error_velocity_mag = 1.27423432951e-05

volFieldValue L2_error_velocity_norm write:
    sqrt(sum(region0)) of error_velocity_mag_squ = 0.00115452210217

volFieldValue error_pressure_norm write:
    max(region0) of error_pres = 0.000902243733282

Courant Number mean: 0.123794634412 max: 0.152695406488
Time = 0.1425

PIMPLE: iteration 1
DILUPBiCGStab:  Solving for Ux, Initial residual = 7.01603723636e-06, Final residual = 4.05825153051e-10, No Iterations 1
DILUPBiCGStab:  Solving for Uy, Initial residual = 7.01603723795e-06, Final residual = 4.0582526533e-10, No Iterations 1
DICPCG:  Solving for p, Initial residual = 1.03951848143e-05, Final residual = 1.02164372597e-07, No Iterations 39
time step continuity errors : sum local = 1.14068755832e-11, global = 3.42957198521e-20, cumulative = 3.41078955931e-18
DICPCG:  Solving for p, Initial residual = 2.450680607e-07, Final residual = 2.41561637777e-09, No Iterations 86
time step continuity errors : sum local = 2.20374365018e-13, global = 5.24842738984e-20, cumulative = 3.46327383321e-18
DICPCG:  Solving for p, Initial residual = 1.06149100279e-08, Final residual = 1.05669690861e-10, No Iterations 35
time step continuity errors : sum local = 1.03773012541e-14, global = -2.35668641728e-20, cumulative = 3.43970696904e-18
DICPCG:  Solving for p, Initial residual = 6.05588444272e-10, Final residual = 8.84839526277e-13, No Iterations 99
time step continuity errors : sum local = 8.18670184462e-17, global = 1.20986181699e-21, cumulative = 3.44091683086e-18
ExecutionTime = 4.8 s  ClockTime = 30 s

volFieldValue error_velocity_norm write:
    max(region0) of error_velocity_mag = 1.27423432951e-05

volFieldValue L2_error_velocity_norm write:
    sqrt(sum(region0)) of error_velocity_mag_squ = 0.00115452210217

volFieldValue error_pressure_norm write:
    max(region0) of error_pres = 0.000902243733282

Courant Number mean: 0.123794465692 max: 0.152695268585
Time = 0.15

PIMPLE: iteration 1
DILUPBiCGStab:  Solving for Ux, Initial residual = 7.00790475114e-06, Final residual = 4.07832924079e-10, No Iterations 1
DILUPBiCGStab:  Solving for Uy, Initial residual = 7.00790475344e-06, Final residual = 4.07833034959e-10, No Iterations 1
DICPCG:  Solving for p, Initial residual = 1.04841917259e-05, Final residual = 9.17086253153e-08, No Iterations 72
time step continuity errors : sum local = 8.35833987388e-12, global = 9.43762291888e-20, cumulative = 3.53529306005e-18
DICPCG:  Solving for p, Initial residual = 2.37351419113e-07, Final residual = 2.03874286072e-09, No Iterations 77
time step continuity errors : sum local = 1.87755579603e-13, global = 1.20385113975e-19, cumulative = 3.65567817402e-18
DICPCG:  Solving for p, Initial residual = 6.58491312674e-09, Final residual = 6.56576782264e-11, No Iterations 37
time step continuity errors : sum local = 6.33514618037e-15, global = 6.15271518713e-20, cumulative = 3.71720532589e-18
DICPCG:  Solving for p, Initial residual = 3.73973196321e-10, Final residual = 9.33444508514e-13, No Iterations 84
time step continuity errors : sum local = 8.60742585645e-17, global = 4.00576128519e-20, cumulative = 3.75726293874e-18
ExecutionTime = 5.06 s  ClockTime = 31 s

volFieldValue error_velocity_norm write:
    max(region0) of error_velocity_mag = 1.27423432951e-05

volFieldValue L2_error_velocity_norm write:
    sqrt(sum(region0)) of error_velocity_mag_squ = 0.00115452210217

volFieldValue error_pressure_norm write:
    max(region0) of error_pres = 0.000902243733282

Courant Number mean: 0.123794288212 max: 0.152695124496
Time = 0.1575

PIMPLE: iteration 1
DILUPBiCGStab:  Solving for Ux, Initial residual = 6.99962419781e-06, Final residual = 4.09789420529e-10, No Iterations 1
DILUPBiCGStab:  Solving for Uy, Initial residual = 6.99962419631e-06, Final residual = 4.09789519149e-10, No Iterations 1
DICPCG:  Solving for p, Initial residual = 1.05719232054e-05, Final residual = 9.48882773532e-08, No Iterations 72
time step continuity errors : sum local = 8.64788783916e-12, global = 1.05798878849e-19, cumulative = 3.86306181759e-18
DICPCG:  Solving for p, Initial residual = 2.42680827009e-07, Final residual = 2.09021265338e-09, No Iterations 77
time step continuity errors : sum local = 1.9248985275e-13, global = 5.1592284636e-20, cumulative = 3.91465410223e-18
DICPCG:  Solving for p, Initial residual = 6.85100940623e-09, Final residual = 6.76554999025e-11, No Iterations 37
time step continuity errors : sum local = 6.52449213184e-15, global = 5.93230242428e-20, cumulative = 3.97397712647e-18
DICPCG:  Solving for p, Initial residual = 3.8666323089e-10, Final residual = 9.72451118195e-13, No Iterations 84
time step continuity errors : sum local = 8.9608273011e-17, global = 6.12372602058e-20, cumulative = 4.03521438668e-18
ExecutionTime = 5.32 s  ClockTime = 31 s

volFieldValue error_velocity_norm write:
    max(region0) of error_velocity_mag = 1.27423432951e-05

volFieldValue L2_error_velocity_norm write:
    sqrt(sum(region0)) of error_velocity_mag_squ = 0.00115452210217

volFieldValue error_pressure_norm write:
    max(region0) of error_pres = 0.000902243733282

Courant Number mean: 0.123794101991 max: 0.152694974265
Time = 0.165

PIMPLE: iteration 1
DILUPBiCGStab:  Solving for Ux, Initial residual = 6.99126996203e-06, Final residual = 4.1169827207e-10, No Iterations 1
DILUPBiCGStab:  Solving for Uy, Initial residual = 6.9912699608e-06, Final residual = 4.11698371708e-10, No Iterations 1
DICPCG:  Solving for p, Initial residual = 1.06582097751e-05, Final residual = 9.79895991727e-08, No Iterations 72
time step continuity errors : sum local = 8.93024860509e-12, global = 9.78682445653e-20, cumulative = 4.13308263124e-18
DICPCG:  Solving for p, Initial residual = 2.48156840477e-07, Final residual = 2.14417949156e-09, No Iterations 77
time step continuity errors : sum local = 1.97453637315e-13, global = 7.53981954384e-20, cumulative = 4.20848082668e-18
DICPCG:  Solving for p, Initial residual = 7.11440860115e-09, Final residual = 6.99146298256e-11, No Iterations 37
time step continuity errors : sum local = 6.74127569517e-15, global = 1.19474283152e-19, cumulative = 4.32795510983e-18
DICPCG:  Solving for p, Initial residual = 3.99293695997e-10, Final residual = 8.35186054413e-13, No Iterations 85
time step continuity errors : sum local = 7.73191959687e-17, global = 1.29484974566e-19, cumulative = 4.4574400844e-18
ExecutionTime = 5.58 s  ClockTime = 31 s

volFieldValue error_velocity_norm write:
    max(region0) of error_velocity_mag = 1.27423432951e-05

volFieldValue L2_error_velocity_norm write:
    sqrt(sum(region0)) of error_velocity_mag_squ = 0.00115452210217

volFieldValue error_pressure_norm write:
    max(region0) of error_pres = 0.000902243733282

Courant Number mean: 0.123793907045 max: 0.152694817927
Time = 0.1725

PIMPLE: iteration 1
DILUPBiCGStab:  Solving for Ux, Initial residual = 6.98268271969e-06, Final residual = 4.13564496903e-10, No Iterations 1
DILUPBiCGStab:  Solving for Uy, Initial residual = 6.9826827185e-06, Final residual = 4.13564597813e-10, No Iterations 1
DICPCG:  Solving for p, Initial residual = 1.07433578975e-05, Final residual = 1.00877878993e-07, No Iterations 72
time step continuity errors : sum local = 9.19317902028e-12, global = 1.33842766923e-19, cumulative = 4.59128285132e-18
DICPCG:  Solving for p, Initial residual = 2.53642312823e-07, Final residual = 2.20161768677e-09, No Iterations 77
time step continuity errors : sum local = 2.02734671922e-13, global = 8.89651651519e-20, cumulative = 4.68024801647e-18
DICPCG:  Solving for p, Initial residual = 7.371972105e-09, Final residual = 7.24311581991e-11, No Iterations 37
time step continuity errors : sum local = 6.98511708223e-15, global = 1.57239710638e-19, cumulative = 4.83748772711e-18
DICPCG:  Solving for p, Initial residual = 4.11880225644e-10, Final residual = 8.86260170086e-13, No Iterations 85
time step continuity errors : sum local = 8.16458693298e-17, global = 6.36217727484e-20, cumulative = 4.90110949986e-18
ExecutionTime = 5.85 s  ClockTime = 31 s

volFieldValue error_velocity_norm write:
    max(region0) of error_velocity_mag = 1.27423432951e-05

volFieldValue L2_error_velocity_norm write:
    sqrt(sum(region0)) of error_velocity_mag_squ = 0.00115452210217

volFieldValue error_pressure_norm write:
    max(region0) of error_pres = 0.000902243733282

Courant Number mean: 0.123793703392 max: 0.152694655508
Time = 0.18

PIMPLE: iteration 1
DILUPBiCGStab:  Solving for Ux, Initial residual = 6.97381342818e-06, Final residual = 4.15388366008e-10, No Iterations 1
DILUPBiCGStab:  Solving for Uy, Initial residual = 6.97381342707e-06, Final residual = 4.15388468205e-10, No Iterations 1
DICPCG:  Solving for p, Initial residual = 1.0827552044e-05, Final residual = 1.0374139364e-07, No Iterations 72
time step continuity errors : sum local = 9.45379809645e-12, global = 1.39600711646e-19, cumulative = 5.04071021151e-18
DICPCG:  Solving for p, Initial residual = 2.59310674906e-07, Final residual = 2.26220179275e-09, No Iterations 77
time step continuity errors : sum local = 2.08303407465e-13, global = 2.93898665798e-20, cumulative = 5.07010007809e-18
DICPCG:  Solving for p, Initial residual = 7.62506597465e-09, Final residual = 7.52093207261e-11, No Iterations 37
time step continuity errors : sum local = 7.25616339375e-15, global = 4.32541062676e-20, cumulative = 5.11335418435e-18
DICPCG:  Solving for p, Initial residual = 4.24456342812e-10, Final residual = 9.46271914251e-13, No Iterations 85
time step continuity errors : sum local = 8.70320523058e-17, global = 1.16591628872e-19, cumulative = 5.22994581323e-18
ExecutionTime = 6.11 s  ClockTime = 32 s

volFieldValue error_velocity_norm write:
    max(region0) of error_velocity_mag = 1.27423432951e-05

volFieldValue L2_error_velocity_norm write:
    sqrt(sum(region0)) of error_velocity_mag_squ = 0.00115452210217

volFieldValue error_pressure_norm write:
    max(region0) of error_pres = 0.000902243733282

Courant Number mean: 0.123793491049 max: 0.152694487025
Time = 0.1875

PIMPLE: iteration 1
DILUPBiCGStab:  Solving for Ux, Initial residual = 6.96463420053e-06, Final residual = 4.17171936322e-10, No Iterations 1
DILUPBiCGStab:  Solving for Uy, Initial residual = 6.96463419948e-06, Final residual = 4.1717203984e-10, No Iterations 1
DICPCG:  Solving for p, Initial residual = 1.0910425571e-05, Final residual = 1.06296088695e-07, No Iterations 72
time step continuity errors : sum local = 9.68628381779e-12, global = 1.04772414763e-19, cumulative = 5.33471822799e-18
DICPCG:  Solving for p, Initial residual = 2.64877618981e-07, Final residual = 2.32604402994e-09, No Iterations 77
time step continuity errors : sum local = 2.14168732663e-13, global = 1.50443264523e-19, cumulative = 5.48516149251e-18
DICPCG:  Solving for p, Initial residual = 7.873561237e-09, Final residual = 7.82413851925e-11, No Iterations 37
time step continuity errors : sum local = 7.55350272424e-15, global = 7.77779178496e-20, cumulative = 5.56293941036e-18
DICPCG:  Solving for p, Initial residual = 4.3689783827e-10, Final residual = 8.83055100645e-13, No Iterations 86
time step continuity errors : sum local = 8.16027610379e-17, global = 1.5291418612e-19, cumulative = 5.71585359648e-18
ExecutionTime = 6.36 s  ClockTime = 32 s

volFieldValue error_velocity_norm write:
    max(region0) of error_velocity_mag = 1.27423432951e-05

volFieldValue L2_error_velocity_norm write:
    sqrt(sum(region0)) of error_velocity_mag_squ = 0.00115452210217

volFieldValue error_pressure_norm write:
    max(region0) of error_pres = 0.000902243733282

Courant Number mean: 0.123793270037 max: 0.152694312487
Time = 0.195

PIMPLE: iteration 1
DILUPBiCGStab:  Solving for Ux, Initial residual = 6.9551833046e-06, Final residual = 4.18917405042e-10, No Iterations 1
DILUPBiCGStab:  Solving for Uy, Initial residual = 6.95518330363e-06, Final residual = 4.18917509898e-10, No Iterations 1
DICPCG:  Solving for p, Initial residual = 1.09922328406e-05, Final residual = 1.08831410837e-07, No Iterations 72
time step continuity errors : sum local = 9.91695401556e-12, global = -7.52962371446e-20, cumulative = 5.64055735934e-18
DICPCG:  Solving for p, Initial residual = 2.70610535967e-07, Final residual = 2.39317161214e-09, No Iterations 77
time step continuity errors : sum local = 2.2033234073e-13, global = 9.2804612171e-20, cumulative = 5.73336197151e-18
DICPCG:  Solving for p, Initial residual = 8.11538509854e-09, Final residual = 7.49207859595e-11, No Iterations 38
time step continuity errors : sum local = 7.26714334711e-15, global = -4.04562641022e-20, cumulative = 5.6929057074e-18
DICPCG:  Solving for p, Initial residual = 4.46803251308e-10, Final residual = 9.84566898649e-13, No Iterations 85
time step continuity errors : sum local = 9.02621013289e-17, global = 6.60325648708e-20, cumulative = 5.75893827228e-18
ExecutionTime = 6.61 s  ClockTime = 32 s

volFieldValue error_velocity_norm write:
    max(region0) of error_velocity_mag = 1.27423432951e-05

volFieldValue L2_error_velocity_norm write:
    sqrt(sum(region0)) of error_velocity_mag_squ = 0.00115452210217

volFieldValue error_pressure_norm write:
    max(region0) of error_pres = 0.000902243733282

Courant Number mean: 0.123793040373 max: 0.152694131893
Time = 0.2025

PIMPLE: iteration 1
DILUPBiCGStab:  Solving for Ux, Initial residual = 6.94541870699e-06, Final residual = 4.20626987255e-10, No Iterations 1
DILUPBiCGStab:  Solving for Uy, Initial residual = 6.94541870609e-06, Final residual = 4.20627093295e-10, No Iterations 1
DICPCG:  Solving for p, Initial residual = 1.10722513466e-05, Final residual = 9.18063159985e-08, No Iterations 73
time step continuity errors : sum local = 8.3478884205e-12, global = 1.32085372173e-20, cumulative = 5.77214680949e-18
DICPCG:  Solving for p, Initial residual = 2.71465679545e-07, Final residual = 2.29078566379e-09, No Iterations 77
time step continuity errors : sum local = 2.1111115953e-13, global = 1.35389153656e-20, cumulative = 5.78568572486e-18
DICPCG:  Solving for p, Initial residual = 7.94133958254e-09, Final residual = 7.74217056252e-11, No Iterations 35
time step continuity errors : sum local = 7.31993016139e-15, global = 9.44137289912e-20, cumulative = 5.88009945385e-18
DICPCG:  Solving for p, Initial residual = 4.5134425657e-10, Final residual = 8.76925810865e-13, No Iterations 86
time step continuity errors : sum local = 8.15960859093e-17, global = 8.22893973816e-20, cumulative = 5.96238885123e-18
ExecutionTime = 6.86 s  ClockTime = 32 s

volFieldValue error_velocity_norm write:
    max(region0) of error_velocity_mag = 1.27423432951e-05

volFieldValue L2_error_velocity_norm write:
    sqrt(sum(region0)) of error_velocity_mag_squ = 0.00115452210217

volFieldValue error_pressure_norm write:
    max(region0) of error_pres = 0.000902243733282

Courant Number mean: 0.123792802078 max: 0.152693945236
Time = 0.21

PIMPLE: iteration 1
DILUPBiCGStab:  Solving for Ux, Initial residual = 6.93539588122e-06, Final residual = 4.22302845627e-10, No Iterations 1
DILUPBiCGStab:  Solving for Uy, Initial residual = 6.9353958806e-06, Final residual = 4.22302951721e-10, No Iterations 1
DICPCG:  Solving for p, Initial residual = 1.11504403193e-05, Final residual = 9.39094407538e-08, No Iterations 73
time step continuity errors : sum local = 8.53884100072e-12, global = -6.61217221196e-20, cumulative = 5.89626712911e-18
DICPCG:  Solving for p, Initial residual = 2.77077451418e-07, Final residual = 2.34984752391e-09, No Iterations 77
time step continuity errors : sum local = 2.16558065319e-13, global = 1.01937209343e-19, cumulative = 5.99820433845e-18
DICPCG:  Solving for p, Initial residual = 8.16586712241e-09, Final residual = 8.06317825452e-11, No Iterations 35
time step continuity errors : sum local = 7.63471028227e-15, global = 9.04568148438e-20, cumulative = 6.0886611533e-18
DICPCG:  Solving for p, Initial residual = 4.62385954199e-10, Final residual = 9.64662088445e-13, No Iterations 86
time step continuity errors : sum local = 8.96154978467e-17, global = 5.96661707588e-20, cumulative = 6.14832732406e-18
ExecutionTime = 7.15 s  ClockTime = 33 s

volFieldValue error_velocity_norm write:
    max(region0) of error_velocity_mag = 1.27423432951e-05

volFieldValue L2_error_velocity_norm write:
    sqrt(sum(region0)) of error_velocity_mag_squ = 0.00115452210217

volFieldValue error_pressure_norm write:
    max(region0) of error_pres = 0.000902243733282

Courant Number mean: 0.123792555172 max: 0.152693752503
Time = 0.2175

PIMPLE: iteration 1
DILUPBiCGStab:  Solving for Ux, Initial residual = 6.92506307735e-06, Final residual = 4.23947037495e-10, No Iterations 1
DILUPBiCGStab:  Solving for Uy, Initial residual = 6.92506307652e-06, Final residual = 4.23947144705e-10, No Iterations 1
DICPCG:  Solving for p, Initial residual = 1.12264941512e-05, Final residual = 9.58911376562e-08, No Iterations 73
time step continuity errors : sum local = 8.71875211883e-12, global = -4.78302920852e-20, cumulative = 6.10049703197e-18
DICPCG:  Solving for p, Initial residual = 2.82664557926e-07, Final residual = 2.41201445342e-09, No Iterations 77
time step continuity errors : sum local = 2.2229007889e-13, global = 1.41893834818e-20, cumulative = 6.11468641545e-18
DICPCG:  Solving for p, Initial residual = 8.38487448301e-09, Final residual = 7.28618435865e-11, No Iterations 36
time step continuity errors : sum local = 6.95893623218e-15, global = 1.67064042814e-21, cumulative = 6.11635705588e-18
DICPCG:  Solving for p, Initial residual = 4.656583695e-10, Final residual = 9.49746021006e-13, No Iterations 88
time step continuity errors : sum local = 8.78454355853e-17, global = 8.30671371295e-20, cumulative = 6.19942419301e-18
ExecutionTime = 7.41 s  ClockTime = 33 s

volFieldValue error_velocity_norm write:
    max(region0) of error_velocity_mag = 1.27423432951e-05

volFieldValue L2_error_velocity_norm write:
    sqrt(sum(region0)) of error_velocity_mag_squ = 0.00115452210217

volFieldValue error_pressure_norm write:
    max(region0) of error_pres = 0.000902243733282

Courant Number mean: 0.123792299675 max: 0.152693553672
Time = 0.225

PIMPLE: iteration 1
DILUPBiCGStab:  Solving for Ux, Initial residual = 6.91445054881e-06, Final residual = 4.2556204046e-10, No Iterations 1
DILUPBiCGStab:  Solving for Uy, Initial residual = 6.91445054814e-06, Final residual = 4.25562148836e-10, No Iterations 1
DICPCG:  Solving for p, Initial residual = 1.13017734648e-05, Final residual = 9.77245733741e-08, No Iterations 73
time step continuity errors : sum local = 8.88518635759e-12, global = 2.17071382457e-20, cumulative = 6.22113133126e-18
DICPCG:  Solving for p, Initial residual = 2.88177408634e-07, Final residual = 2.47692056885e-09, No Iterations 77
time step continuity errors : sum local = 2.28273511762e-13, global = 6.99928132355e-20, cumulative = 6.29112414449e-18
DICPCG:  Solving for p, Initial residual = 8.59772756839e-09, Final residual = 7.58738002558e-11, No Iterations 36
time step continuity errors : sum local = 7.26156579157e-15, global = 3.3226186175e-20, cumulative = 6.32435033067e-18
DICPCG:  Solving for p, Initial residual = 4.7566306886e-10, Final residual = 9.1975874986e-13, No Iterations 89
time step continuity errors : sum local = 8.53699261627e-17, global = 2.34106896754e-20, cumulative = 6.34776102034e-18
ExecutionTime = 7.67 s  ClockTime = 33 s

volFieldValue error_velocity_norm write:
    max(region0) of error_velocity_mag = 1.27423432951e-05

volFieldValue L2_error_velocity_norm write:
    sqrt(sum(region0)) of error_velocity_mag_squ = 0.00115452210217

volFieldValue error_pressure_norm write:
    max(region0) of error_pres = 0.000902243733282

Courant Number mean: 0.123792035609 max: 0.152693348716
Time = 0.2325

PIMPLE: iteration 1
DILUPBiCGStab:  Solving for Ux, Initial residual = 6.90360834149e-06, Final residual = 4.27150369517e-10, No Iterations 1
DILUPBiCGStab:  Solving for Uy, Initial residual = 6.90360834066e-06, Final residual = 4.27150478779e-10, No Iterations 1
DICPCG:  Solving for p, Initial residual = 1.13762991759e-05, Final residual = 9.94105781932e-08, No Iterations 73
time step continuity errors : sum local = 9.0382139771e-12, global = 2.92282085068e-20, cumulative = 6.37698922885e-18
DICPCG:  Solving for p, Initial residual = 2.93597169307e-07, Final residual = 2.54399051823e-09, No Iterations 77
time step continuity errors : sum local = 2.34455334369e-13, global = 8.58953834656e-20, cumulative = 6.46288461231e-18
DICPCG:  Solving for p, Initial residual = 8.80394433585e-09, Final residual = 7.90085572783e-11, No Iterations 36
time step continuity errors : sum local = 7.57767721698e-15, global = -8.49230673018e-22, cumulative = 6.46203538164e-18
DICPCG:  Solving for p, Initial residual = 4.85241656462e-10, Final residual = 9.6862652967e-13, No Iterations 89
time step continuity errors : sum local = 8.95407003731e-17, global = 3.78262514586e-20, cumulative = 6.4998616331e-18
ExecutionTime = 7.92 s  ClockTime = 34 s

volFieldValue error_velocity_norm write:
    max(region0) of error_velocity_mag = 1.27423432951e-05

volFieldValue L2_error_velocity_norm write:
    sqrt(sum(region0)) of error_velocity_mag_squ = 0.00115452210217

volFieldValue error_pressure_norm write:
    max(region0) of error_pres = 0.000902243733282

Courant Number mean: 0.123791762996 max: 0.152693137603
Time = 0.24

PIMPLE: iteration 1
DILUPBiCGStab:  Solving for Ux, Initial residual = 6.89254598151e-06, Final residual = 4.28712574811e-10, No Iterations 1
DILUPBiCGStab:  Solving for Uy, Initial residual = 6.8925459808e-06, Final residual = 4.28712684918e-10, No Iterations 1
DICPCG:  Solving for p, Initial residual = 1.14486503598e-05, Final residual = 1.00980774276e-07, No Iterations 73
time step continuity errors : sum local = 9.18076354248e-12, global = 8.55876145945e-20, cumulative = 6.5854492477e-18
DICPCG:  Solving for p, Initial residual = 2.99050957906e-07, Final residual = 2.61189854083e-09, No Iterations 77
time step continuity errors : sum local = 2.4071432694e-13, global = 1.14423097926e-19, cumulative = 6.69987234562e-18
DICPCG:  Solving for p, Initial residual = 8.99983748689e-09, Final residual = 8.22084508761e-11, No Iterations 36
time step continuity errors : sum local = 7.90132995465e-15, global = -1.01592404535e-21, cumulative = 6.69885642158e-18
DICPCG:  Solving for p, Initial residual = 4.94261398889e-10, Final residual = 9.85193234927e-13, No Iterations 90
time step continuity errors : sum local = 9.08810958762e-17, global = 8.32949900586e-20, cumulative = 6.78215141163e-18
ExecutionTime = 8.18 s  ClockTime = 34 s

volFieldValue error_velocity_norm write:
    max(region0) of error_velocity_mag = 1.27423432951e-05

volFieldValue L2_error_velocity_norm write:
    sqrt(sum(region0)) of error_velocity_mag_squ = 0.00115452210217

volFieldValue error_pressure_norm write:
    max(region0) of error_pres = 0.000902243733282

Courant Number mean: 0.123791481856 max: 0.152692920294
Time = 0.2475

PIMPLE: iteration 1
DILUPBiCGStab:  Solving for Ux, Initial residual = 6.88129041267e-06, Final residual = 4.30250055383e-10, No Iterations 1
DILUPBiCGStab:  Solving for Uy, Initial residual = 6.881290412e-06, Final residual = 4.30250166008e-10, No Iterations 1
DICPCG:  Solving for p, Initial residual = 1.15186210404e-05, Final residual = 1.02325643052e-07, No Iterations 73
time step continuity errors : sum local = 9.30274480846e-12, global = 2.44718555852e-20, cumulative = 6.80662326722e-18
DICPCG:  Solving for p, Initial residual = 3.04130264141e-07, Final residual = 2.6833058164e-09, No Iterations 77
time step continuity errors : sum local = 2.47294603636e-13, global = 3.29176525091e-20, cumulative = 6.83954091973e-18
DICPCG:  Solving for p, Initial residual = 9.19321575375e-09, Final residual = 8.55489436049e-11, No Iterations 36
time step continuity errors : sum local = 8.24018954542e-15, global = 1.71561053687e-20, cumulative = 6.8566970251e-18
DICPCG:  Solving for p, Initial residual = 5.02999020201e-10, Final residual = 8.77834866189e-13, No Iterations 91
time step continuity errors : sum local = 8.11699224918e-17, global = 4.46652410338e-20, cumulative = 6.90136226613e-18
ExecutionTime = 8.43 s  ClockTime = 34 s

volFieldValue error_velocity_norm write:
    max(region0) of error_velocity_mag = 1.27423432951e-05

volFieldValue L2_error_velocity_norm write:
    sqrt(sum(region0)) of error_velocity_mag_squ = 0.00115452210217

volFieldValue error_pressure_norm write:
    max(region0) of error_pres = 0.000902243733282

Courant Number mean: 0.123791192213 max: 0.152692696747
Time = 0.255

PIMPLE: iteration 1
DILUPBiCGStab:  Solving for Ux, Initial residual = 6.87008939094e-06, Final residual = 4.31764264704e-10, No Iterations 1
DILUPBiCGStab:  Solving for Uy, Initial residual = 6.87008939033e-06, Final residual = 4.31764371493e-10, No Iterations 1
DICPCG:  Solving for p, Initial residual = 1.15865547515e-05, Final residual = 1.03548247366e-07, No Iterations 73
time step continuity errors : sum local = 9.41365278279e-12, global = 2.78057796821e-20, cumulative = 6.92916804581e-18
DICPCG:  Solving for p, Initial residual = 3.09173581318e-07, Final residual = 2.75517687293e-09, No Iterations 77
time step continuity errors : sum local = 2.53917898079e-13, global = 1.19990030152e-19, cumulative = 7.04915807596e-18
DICPCG:  Solving for p, Initial residual = 9.37416135471e-09, Final residual = 8.88774081394e-11, No Iterations 36
time step continuity errors : sum local = 8.57896227726e-15, global = 3.46716070699e-21, cumulative = 7.05262523667e-18
DICPCG:  Solving for p, Initial residual = 5.11078188735e-10, Final residual = 8.77423331207e-13, No Iterations 91
time step continuity errors : sum local = 8.10061131457e-17, global = 5.61022344655e-20, cumulative = 7.10872747114e-18
ExecutionTime = 8.69 s  ClockTime = 34 s

volFieldValue error_velocity_norm write:
    max(region0) of error_velocity_mag = 1.27423432951e-05

volFieldValue L2_error_velocity_norm write:
    sqrt(sum(region0)) of error_velocity_mag_squ = 0.00115452210217

volFieldValue error_pressure_norm write:
    max(region0) of error_pres = 0.000902243733282

Courant Number mean: 0.12379089409 max: 0.152692466915
Time = 0.2625

PIMPLE: iteration 1
DILUPBiCGStab:  Solving for Ux, Initial residual = 6.85879020106e-06, Final residual = 4.3325651972e-10, No Iterations 1
DILUPBiCGStab:  Solving for Uy, Initial residual = 6.85879020048e-06, Final residual = 4.33256616796e-10, No Iterations 1
DICPCG:  Solving for p, Initial residual = 1.16531400517e-05, Final residual = 1.0458656403e-07, No Iterations 73
time step continuity errors : sum local = 9.50779701788e-12, global = 1.72854622476e-20, cumulative = 7.12601293338e-18
DICPCG:  Solving for p, Initial residual = 3.13985819648e-07, Final residual = 2.82863936259e-09, No Iterations 77
time step continuity errors : sum local = 2.60687374568e-13, global = 9.86077000989e-20, cumulative = 7.22462063348e-18
DICPCG:  Solving for p, Initial residual = 9.54571146939e-09, Final residual = 9.21935893241e-11, No Iterations 36
time step continuity errors : sum local = 8.91700227962e-15, global = 7.88244509464e-20, cumulative = 7.30344508443e-18
DICPCG:  Solving for p, Initial residual = 5.18535513919e-10, Final residual = 8.73246750947e-13, No Iterations 91
time step continuity errors : sum local = 8.08017089337e-17, global = 1.17301319945e-19, cumulative = 7.42074640438e-18
ExecutionTime = 8.95 s  ClockTime = 35 s

volFieldValue error_velocity_norm write:
    max(region0) of error_velocity_mag = 1.27423432951e-05

volFieldValue L2_error_velocity_norm write:
    sqrt(sum(region0)) of error_velocity_mag_squ = 0.00115452210217

volFieldValue error_pressure_norm write:
    max(region0) of error_pres = 0.000902243733282

Courant Number mean: 0.123790587508 max: 0.152692230748
Time = 0.27

PIMPLE: iteration 1
DILUPBiCGStab:  Solving for Ux, Initial residual = 6.84734128828e-06, Final residual = 4.34728017772e-10, No Iterations 1
DILUPBiCGStab:  Solving for Uy, Initial residual = 6.84734128771e-06, Final residual = 4.34728106195e-10, No Iterations 1
DICPCG:  Solving for p, Initial residual = 1.17183675891e-05, Final residual = 1.05403235571e-07, No Iterations 73
time step continuity errors : sum local = 9.58175994875e-12, global = 4.50214922363e-20, cumulative = 7.46576789661e-18
DICPCG:  Solving for p, Initial residual = 3.18554544263e-07, Final residual = 2.89978579948e-09, No Iterations 77
time step continuity errors : sum local = 2.67248351014e-13, global = -1.13891269524e-20, cumulative = 7.45437876966e-18
DICPCG:  Solving for p, Initial residual = 9.70623365034e-09, Final residual = 9.54344294831e-11, No Iterations 36
time step continuity errors : sum local = 9.24837424912e-15, global = 1.69156926758e-20, cumulative = 7.47129446234e-18
DICPCG:  Solving for p, Initial residual = 5.2534315605e-10, Final residual = 8.67659527391e-13, No Iterations 91
time step continuity errors : sum local = 8.02870546161e-17, global = -2.05741602546e-20, cumulative = 7.45072030208e-18
ExecutionTime = 9.26 s  ClockTime = 35 s

volFieldValue error_velocity_norm write:
    max(region0) of error_velocity_mag = 1.27423432951e-05

volFieldValue L2_error_velocity_norm write:
    sqrt(sum(region0)) of error_velocity_mag_squ = 0.00115452210217

volFieldValue error_pressure_norm write:
    max(region0) of error_pres = 0.000902243733282

Courant Number mean: 0.123790272492 max: 0.152691988194
Time = 0.2775

PIMPLE: iteration 1
DILUPBiCGStab:  Solving for Ux, Initial residual = 6.83570741424e-06, Final residual = 4.36179807154e-10, No Iterations 1
DILUPBiCGStab:  Solving for Uy, Initial residual = 6.83570741364e-06, Final residual = 4.36179895807e-10, No Iterations 1
DICPCG:  Solving for p, Initial residual = 1.17821109187e-05, Final residual = 1.05951413869e-07, No Iterations 73
time step continuity errors : sum local = 9.63125024952e-12, global = -7.6069864552e-21, cumulative = 7.44311331563e-18
DICPCG:  Solving for p, Initial residual = 3.22906367626e-07, Final residual = 2.97098275915e-09, No Iterations 77
time step continuity errors : sum local = 2.73815856547e-13, global = 7.39781423884e-20, cumulative = 7.51709145801e-18
DICPCG:  Solving for p, Initial residual = 9.85616112021e-09, Final residual = 9.85327747629e-11, No Iterations 36
time step continuity errors : sum local = 9.56580385403e-15, global = 1.01772363971e-19, cumulative = 7.61886382199e-18
DICPCG:  Solving for p, Initial residual = 5.31435405288e-10, Final residual = 8.61710322017e-13, No Iterations 91
time step continuity errors : sum local = 7.98559436005e-17, global = 8.61591117391e-20, cumulative = 7.70502293372e-18
ExecutionTime = 9.51 s  ClockTime = 35 s

volFieldValue error_velocity_norm write:
    max(region0) of error_velocity_mag = 1.27423432951e-05

volFieldValue L2_error_velocity_norm write:
    sqrt(sum(region0)) of error_velocity_mag_squ = 0.00115452210217

volFieldValue error_pressure_norm write:
    max(region0) of error_pres = 0.000902243733282

Courant Number mean: 0.123789949066 max: 0.152691739195
Time = 0.285

PIMPLE: iteration 1
DILUPBiCGStab:  Solving for Ux, Initial residual = 6.82390327901e-06, Final residual = 4.37612740043e-10, No Iterations 1
DILUPBiCGStab:  Solving for Uy, Initial residual = 6.82390327845e-06, Final residual = 4.3761282886e-10, No Iterations 1
DICPCG:  Solving for p, Initial residual = 1.18437190371e-05, Final residual = 1.0587286671e-07, No Iterations 73
time step continuity errors : sum local = 9.62376243267e-12, global = 1.09968360316e-19, cumulative = 7.81499129404e-18
DICPCG:  Solving for p, Initial residual = 3.26982697338e-07, Final residual = 3.03801169668e-09, No Iterations 77
time step continuity errors : sum local = 2.80005332351e-13, global = 2.35719259447e-20, cumulative = 7.83856321999e-18
DICPCG:  Solving for p, Initial residual = 9.98490275688e-09, Final residual = 8.7901069315e-11, No Iterations 37
time step continuity errors : sum local = 8.62587529796e-15, global = 6.12725676335e-20, cumulative = 7.89983578762e-18
DICPCG:  Solving for p, Initial residual = 5.27110192122e-10, Final residual = 8.68358947642e-13, No Iterations 89
time step continuity errors : sum local = 8.03309371157e-17, global = -4.26488625584e-20, cumulative = 7.85718692506e-18
ExecutionTime = 9.77 s  ClockTime = 35 s

volFieldValue error_velocity_norm write:
    max(region0) of error_velocity_mag = 1.27423432951e-05

volFieldValue L2_error_velocity_norm write:
    sqrt(sum(region0)) of error_velocity_mag_squ = 0.00115452210217

volFieldValue error_pressure_norm write:
    max(region0) of error_pres = 0.000902243733282

Courant Number mean: 0.123789617252 max: 0.152691483695
Time = 0.2925

PIMPLE: iteration 1
DILUPBiCGStab:  Solving for Ux, Initial residual = 6.81187627039e-06, Final residual = 4.3902761669e-10, No Iterations 1
DILUPBiCGStab:  Solving for Uy, Initial residual = 6.81187626984e-06, Final residual = 4.39027705593e-10, No Iterations 1
DICPCG:  Solving for p, Initial residual = 1.19040414392e-05, Final residual = 1.05718273055e-07, No Iterations 73
time step continuity errors : sum local = 9.6088739369e-12, global = 1.1139196653e-19, cumulative = 7.96857889159e-18
DICPCG:  Solving for p, Initial residual = 3.30648284343e-07, Final residual = 3.10681471276e-09, No Iterations 77
time step continuity errors : sum local = 2.86363145315e-13, global = 1.03995555611e-19, cumulative = 8.0725744472e-18
DICPCG:  Solving for p, Initial residual = 1.01096217492e-08, Final residual = 9.02388542633e-11, No Iterations 37
time step continuity errors : sum local = 8.86823498404e-15, global = 9.90732050901e-20, cumulative = 8.17164765229e-18
DICPCG:  Solving for p, Initial residual = 5.31455884267e-10, Final residual = 9.8880251052e-13, No Iterations 88
time step continuity errors : sum local = 9.1121073388e-17, global = 1.96567991066e-19, cumulative = 8.36821564336e-18
ExecutionTime = 10.03 s  ClockTime = 36 s

volFieldValue error_velocity_norm write:
    max(region0) of error_velocity_mag = 1.27423432951e-05

volFieldValue L2_error_velocity_norm write:
    sqrt(sum(region0)) of error_velocity_mag_squ = 0.00115452210217

volFieldValue error_pressure_norm write:
    max(region0) of error_pres = 0.000902243733282

Courant Number mean: 0.123789277076 max: 0.152691221633
Time = 0.3

PIMPLE: iteration 1
DILUPBiCGStab:  Solving for Ux, Initial residual = 6.79975892246e-06, Final residual = 4.4042515561e-10, No Iterations 1
DILUPBiCGStab:  Solving for Uy, Initial residual = 6.7997589219e-06, Final residual = 4.40425244395e-10, No Iterations 1
DICPCG:  Solving for p, Initial residual = 1.19625775016e-05, Final residual = 1.04673417843e-07, No Iterations 73
time step continuity errors : sum local = 9.51280977976e-12, global = 1.33501110677e-19, cumulative = 8.50171675404e-18
DICPCG:  Solving for p, Initial residual = 3.33959630523e-07, Final residual = 3.16786452265e-09, No Iterations 77
time step continuity errors : sum local = 2.92017076085e-13, global = 9.05556293168e-20, cumulative = 8.59227238335e-18
DICPCG:  Solving for p, Initial residual = 1.02059055706e-08, Final residual = 9.20632824308e-11, No Iterations 37
time step continuity errors : sum local = 9.05614448713e-15, global = 9.92413515693e-20, cumulative = 8.69151373492e-18
DICPCG:  Solving for p, Initial residual = 5.34562226848e-10, Final residual = 9.69459670081e-13, No Iterations 88
time step continuity errors : sum local = 8.91391467288e-17, global = 9.03144576437e-20, cumulative = 8.78182819256e-18
ExecutionTime = 10.28 s  ClockTime = 36 s

volFieldValue error_velocity_norm write:
    max(region0) of error_velocity_mag = 1.27423432951e-05

volFieldValue L2_error_velocity_norm write:
    sqrt(sum(region0)) of error_velocity_mag_squ = 0.00115452210217

volFieldValue error_pressure_norm write:
    max(region0) of error_pres = 0.000902243733282

End

