/*---------------------------------------------------------------------------*\
| =========                 |                                                 |
| \\      /  F ield         | OpenFOAM: The Open Source CFD Toolbox           |
|  \\    /   O peration     | Version:  2406                                  |
|   \\  /    A nd           | Website:  www.openfoam.com                      |
|    \\/     M anipulation  |                                                 |
\*---------------------------------------------------------------------------*/
Build  : _630d60de3b-20240620 OPENFOAM=2406 version=v2406
Arch   : "LSB;label=32;scalar=64"
Exec   : pimpleFoam
Date   : Sep 05 2024
Time   : 21:17:29
Host   : hakan-X556UQK
PID    : 38434
I/O    : uncollated
Case   : /home/hakan/courses/testSimulation/tgv2dTests/tgv2d_temporal/pimple/pimple_nu1/TGV_temporal
nProcs : 1
trapFpe: Floating point exception trapping enabled (FOAM_SIGFPE).
fileModificationChecking : Monitoring run-time modified files using timeStampMaster (fileModificationSkew 5, maxFileModificationPolls 20)
allowSystemOperations : Allowing user-supplied system call operations

// * * * * * * * * * * * * * * * * * * * * * * * * * * * * * * * * * * * * * //
Create time

Create mesh for time = 0


PIMPLE: Operating solver in PISO mode

Reading field p

Using #codeStream at line 19 in file "0/p"
Using #codeStream with "/home/hakan/courses/testSimulation/tgv2dTests/tgv2d_temporal/pimple/pimple_nu1/TGV_temporal/dynamicCode/platforms/linux64GccDPInt32Opt/lib/libcodeStream_537564b8bd232f4ddf4797bc6f60eef024868c2e.so"
Creating new library in "dynamicCode/_537564b8bd232f4ddf4797bc6f60eef024868c2e/platforms/linux64GccDPInt32Opt/lib/libcodeStream_537564b8bd232f4ddf4797bc6f60eef024868c2e.so"
Invoking wmake libso /home/hakan/courses/testSimulation/tgv2dTests/tgv2d_temporal/pimple/pimple_nu1/TGV_temporal/dynamicCode/_537564b8bd232f4ddf4797bc6f60eef024868c2e
wmake libso /home/hakan/courses/testSimulation/tgv2dTests/tgv2d_temporal/pimple/pimple_nu1/TGV_temporal/dynamicCode/_537564b8bd232f4ddf4797bc6f60eef024868c2e
    dep: codeStreamTemplate.C
    Ctoo: codeStreamTemplate.C
    link: /home/hakan/courses/testSimulation/tgv2dTests/tgv2d_temporal/pimple/pimple_nu1/TGV_temporal/dynamicCode/_537564b8bd232f4ddf4797bc6f60eef024868c2e/../platforms/linux64GccDPInt32Opt/lib/libcodeStream_537564b8bd232f4ddf4797bc6f60eef024868c2e.so
Reading field U

Using #codeStream at line 19 in file "0/U"
Using #codeStream with "/home/hakan/courses/testSimulation/tgv2dTests/tgv2d_temporal/pimple/pimple_nu1/TGV_temporal/dynamicCode/platforms/linux64GccDPInt32Opt/lib/libcodeStream_18dd48bdf5aea29696d9cbfe8eb27bc690b7dc03.so"
Creating new library in "dynamicCode/_18dd48bdf5aea29696d9cbfe8eb27bc690b7dc03/platforms/linux64GccDPInt32Opt/lib/libcodeStream_18dd48bdf5aea29696d9cbfe8eb27bc690b7dc03.so"
Invoking wmake libso /home/hakan/courses/testSimulation/tgv2dTests/tgv2d_temporal/pimple/pimple_nu1/TGV_temporal/dynamicCode/_18dd48bdf5aea29696d9cbfe8eb27bc690b7dc03
wmake libso /home/hakan/courses/testSimulation/tgv2dTests/tgv2d_temporal/pimple/pimple_nu1/TGV_temporal/dynamicCode/_18dd48bdf5aea29696d9cbfe8eb27bc690b7dc03
    dep: codeStreamTemplate.C
    Ctoo: codeStreamTemplate.C
    link: /home/hakan/courses/testSimulation/tgv2dTests/tgv2d_temporal/pimple/pimple_nu1/TGV_temporal/dynamicCode/_18dd48bdf5aea29696d9cbfe8eb27bc690b7dc03/../platforms/linux64GccDPInt32Opt/lib/libcodeStream_18dd48bdf5aea29696d9cbfe8eb27bc690b7dc03.so
Reading/calculating face flux field phi

Selecting incompressible transport model Newtonian
Selecting turbulence model type laminar
Selecting laminar stress model Stokes
No MRF models present

No finite volume options present
Courant Number mean: 0.0618980796527 max: 0.0763483625043
Courant Number mean: 0.0618980796527 max: 0.0763483625043

Starting time loop

Using dynamicCode for functionObject diff at line 51 in "/home/hakan/courses/testSimulation/tgv2dTests/tgv2d_temporal/pimple/pimple_nu1/TGV_temporal/system/controlDict/functions/diff"
Creating new library in "dynamicCode/diff/platforms/linux64GccDPInt32Opt/lib/libdiff_d924c92ec3fe0b16fec6b8892a9fc1c20fa93dd8.so"
Invoking wmake libso /home/hakan/courses/testSimulation/tgv2dTests/tgv2d_temporal/pimple/pimple_nu1/TGV_temporal/dynamicCode/diff
wmake libso /home/hakan/courses/testSimulation/tgv2dTests/tgv2d_temporal/pimple/pimple_nu1/TGV_temporal/dynamicCode/diff
    dep: functionObjectTemplate.C
    Ctoo: functionObjectTemplate.C
    link: /home/hakan/courses/testSimulation/tgv2dTests/tgv2d_temporal/pimple/pimple_nu1/TGV_temporal/dynamicCode/diff/../platforms/linux64GccDPInt32Opt/lib/libdiff_d924c92ec3fe0b16fec6b8892a9fc1c20fa93dd8.so
Courant Number mean: 0.0618980796527 max: 0.0763483625043
Time = 0.00375

PIMPLE: iteration 1
DILUPBiCGStab:  Solving for Ux, Initial residual = 0.00373524272508, Final residual = 5.65944353329e-09, No Iterations 5
DILUPBiCGStab:  Solving for Uy, Initial residual = 0.00373524272508, Final residual = 5.69728705916e-09, No Iterations 5
DICPCG:  Solving for p, Initial residual = 0.0261768480774, Final residual = 0.00024631716264, No Iterations 35
time step continuity errors : sum local = 7.73783485758e-10, global = 4.78402865373e-20, cumulative = 4.78402865373e-20
DICPCG:  Solving for p, Initial residual = 0.0225639559762, Final residual = 0.000219058340866, No Iterations 35
time step continuity errors : sum local = 6.80670186585e-10, global = 2.12822647925e-20, cumulative = 6.91225513297e-20
DICPCG:  Solving for p, Initial residual = 0.000391610763523, Final residual = 3.36867189685e-06, No Iterations 84
time step continuity errors : sum local = 1.05550365383e-11, global = 3.47352813244e-20, cumulative = 1.03857832654e-19
DICPCG:  Solving for p, Initial residual = 8.8731736781e-05, Final residual = 8.58076416224e-13, No Iterations 186
time step continuity errors : sum local = 5.18196394443e-18, global = 1.81815187541e-20, cumulative = 1.22039351408e-19
ExecutionTime = 0.42 s  ClockTime = 29 s

    Reading error_velocity_mag (volScalarField)
    Reading error_velocity_mag_squ (volScalarField)
    Reading error_pres (volScalarField)
volFieldValue error_velocity_norm write:
    max(region0) of error_velocity_mag = 2.93064214081e-05

volFieldValue L2_error_velocity_norm write:
    sqrt(sum(region0)) of error_velocity_mag_squ = 0.00265213402398

volFieldValue error_pressure_norm write:
    max(region0) of error_pres = 0.0038537588343

Courant Number mean: 0.0614373936583 max: 0.0757801288513
Time = 0.0075

PIMPLE: iteration 1
DILUPBiCGStab:  Solving for Ux, Initial residual = 0.00374923988292, Final residual = 3.68529404918e-09, No Iterations 4
DILUPBiCGStab:  Solving for Uy, Initial residual = 0.00374923985962, Final residual = 3.68696864978e-09, No Iterations 4
DICPCG:  Solving for p, Initial residual = 0.0301217710889, Final residual = 0.00028399536948, No Iterations 35
time step continuity errors : sum local = 7.74630745451e-10, global = 2.20985710933e-20, cumulative = 1.44137922502e-19
DICPCG:  Solving for p, Initial residual = 0.0228959757, Final residual = 0.00022213914313, No Iterations 35
time step continuity errors : sum local = 5.99310017135e-10, global = 3.15203426231e-20, cumulative = 1.75658265125e-19
DICPCG:  Solving for p, Initial residual = 0.000387224048355, Final residual = 3.14497800102e-06, No Iterations 84
time step continuity errors : sum local = 8.5188164545e-12, global = 1.27645829121e-22, cumulative = 1.75785910954e-19
DICPCG:  Solving for p, Initial residual = 8.01752942828e-05, Final residual = 9.90530222117e-13, No Iterations 180
time step continuity errors : sum local = 5.13428953839e-18, global = -1.53933842837e-21, cumulative = 1.74246572525e-19
ExecutionTime = 0.77 s  ClockTime = 29 s

volFieldValue error_velocity_norm write:
    max(region0) of error_velocity_mag = 2.93064214081e-05

volFieldValue L2_error_velocity_norm write:
    sqrt(sum(region0)) of error_velocity_mag_squ = 0.00265213402398

volFieldValue error_pressure_norm write:
    max(region0) of error_pres = 0.0038537588343

Courant Number mean: 0.061034437298 max: 0.0752831015086
Time = 0.01125

PIMPLE: iteration 1
DILUPBiCGStab:  Solving for Ux, Initial residual = 0.00374924279186, Final residual = 3.68608650808e-09, No Iterations 4
DILUPBiCGStab:  Solving for Uy, Initial residual = 0.00374924277124, Final residual = 3.68773610954e-09, No Iterations 4
DICPCG:  Solving for p, Initial residual = 0.0298935776903, Final residual = 0.000281729253086, No Iterations 35
time step continuity errors : sum local = 7.57607916757e-10, global = -1.33391865882e-20, cumulative = 1.60907385937e-19
DICPCG:  Solving for p, Initial residual = 0.0227213857363, Final residual = 0.000220432001922, No Iterations 35
time step continuity errors : sum local = 5.86335780361e-10, global = 3.21237623807e-20, cumulative = 1.93031148318e-19
DICPCG:  Solving for p, Initial residual = 0.000384273754986, Final residual = 3.11634503901e-06, No Iterations 84
time step continuity errors : sum local = 8.32106653418e-12, global = -1.95044942167e-20, cumulative = 1.73526654101e-19
DICPCG:  Solving for p, Initial residual = 7.96010622209e-05, Final residual = 9.82794709379e-13, No Iterations 180
time step continuity errors : sum local = 5.02053269278e-18, global = -1.47157917951e-20, cumulative = 1.58810862306e-19
ExecutionTime = 1.15 s  ClockTime = 29 s

volFieldValue error_velocity_norm write:
    max(region0) of error_velocity_mag = 2.93064214081e-05

volFieldValue L2_error_velocity_norm write:
    sqrt(sum(region0)) of error_velocity_mag_squ = 0.00265213402398

volFieldValue error_pressure_norm write:
    max(region0) of error_pres = 0.0038537588343

Courant Number mean: 0.0604941458825 max: 0.074616677694
Time = 0.015

PIMPLE: iteration 1
DILUPBiCGStab:  Solving for Ux, Initial residual = 0.00374924317256, Final residual = 3.68702890918e-09, No Iterations 4
DILUPBiCGStab:  Solving for Uy, Initial residual = 0.00374924315573, Final residual = 3.68845104709e-09, No Iterations 4
DICPCG:  Solving for p, Initial residual = 0.0339529395832, Final residual = 0.000319918603421, No Iterations 35
time step continuity errors : sum local = 8.44774651395e-10, global = 1.95133347791e-21, cumulative = 1.60762195784e-19
DICPCG:  Solving for p, Initial residual = 0.0258326848203, Final residual = 0.000250585777186, No Iterations 35
time step continuity errors : sum local = 6.53855508903e-10, global = -9.69643510131e-21, cumulative = 1.51065760683e-19
DICPCG:  Solving for p, Initial residual = 0.000435484747294, Final residual = 3.53777073242e-06, No Iterations 84
time step continuity errors : sum local = 9.29404657317e-12, global = 1.31269661944e-20, cumulative = 1.64192726877e-19
DICPCG:  Solving for p, Initial residual = 9.02514636843e-05, Final residual = 9.91725226872e-13, No Iterations 184
time step continuity errors : sum local = 5.1196373475e-18, global = 2.08929763272e-20, cumulative = 1.85085703204e-19
ExecutionTime = 1.52 s  ClockTime = 30 s

volFieldValue error_velocity_norm write:
    max(region0) of error_velocity_mag = 2.93064214081e-05

volFieldValue L2_error_velocity_norm write:
    sqrt(sum(region0)) of error_velocity_mag_squ = 0.00265213402398

volFieldValue error_pressure_norm write:
    max(region0) of error_pres = 0.0038537588343

Courant Number mean: 0.0600855419627 max: 0.0741126839752
Time = 0.01875

PIMPLE: iteration 1
DILUPBiCGStab:  Solving for Ux, Initial residual = 0.00374924222441, Final residual = 3.68791251988e-09, No Iterations 4
DILUPBiCGStab:  Solving for Uy, Initial residual = 0.00374924220409, Final residual = 3.68955013215e-09, No Iterations 4
DICPCG:  Solving for p, Initial residual = 0.0298999549848, Final residual = 0.000281867970172, No Iterations 35
time step continuity errors : sum local = 7.35104570535e-10, global = -4.35187938963e-20, cumulative = 1.41566909308e-19
DICPCG:  Solving for p, Initial residual = 0.0227262147849, Final residual = 0.000220487463656, No Iterations 35
time step continuity errors : sum local = 5.68786049834e-10, global = -4.53892241705e-20, cumulative = 9.61776851376e-20
DICPCG:  Solving for p, Initial residual = 0.000384388045145, Final residual = 3.11705505983e-06, No Iterations 84
time step continuity errors : sum local = 8.072089103e-12, global = -2.9153886544e-20, cumulative = 6.70237985936e-20
DICPCG:  Solving for p, Initial residual = 7.9598640079e-05, Final residual = 9.83212390377e-13, No Iterations 180
time step continuity errors : sum local = 5.01575544987e-18, global = 1.0517836334e-20, cumulative = 7.75416349277e-20
ExecutionTime = 1.89 s  ClockTime = 30 s

volFieldValue error_velocity_norm write:
    max(region0) of error_velocity_mag = 2.93064214081e-05

volFieldValue L2_error_velocity_norm write:
    sqrt(sum(region0)) of error_velocity_mag_squ = 0.00265213402398

volFieldValue error_pressure_norm write:
    max(region0) of error_pres = 0.0038537588343

Courant Number mean: 0.0596143999842 max: 0.0735315526222
Time = 0.0225

PIMPLE: iteration 1
DILUPBiCGStab:  Solving for Ux, Initial residual = 0.00374924318395, Final residual = 3.68873162279e-09, No Iterations 4
DILUPBiCGStab:  Solving for Uy, Initial residual = 0.00374924316569, Final residual = 3.69024536842e-09, No Iterations 4
DICPCG:  Solving for p, Initial residual = 0.0319897348383, Final residual = 0.000301442931861, No Iterations 35
time step continuity errors : sum local = 7.73446942139e-10, global = 5.9710408103e-21, cumulative = 8.3512675738e-20
DICPCG:  Solving for p, Initial residual = 0.0243272045935, Final residual = 0.000235999228224, No Iterations 35
time step continuity errors : sum local = 5.98646546636e-10, global = -1.31661144219e-20, cumulative = 7.0346561316e-20
DICPCG:  Solving for p, Initial residual = 0.000410748620819, Final residual = 3.33321721898e-06, No Iterations 84
time step continuity errors : sum local = 8.50057772308e-12, global = -1.78787679748e-20, cumulative = 5.24677933412e-20
DICPCG:  Solving for p, Initial residual = 8.51079264999e-05, Final residual = 9.82909165917e-13, No Iterations 183
time step continuity errors : sum local = 4.91117241519e-18, global = 2.26297180026e-20, cumulative = 7.50975113439e-20
ExecutionTime = 2.28 s  ClockTime = 31 s

volFieldValue error_velocity_norm write:
    max(region0) of error_velocity_mag = 2.93064214081e-05

volFieldValue L2_error_velocity_norm write:
    sqrt(sum(region0)) of error_velocity_mag_squ = 0.00265213402398

volFieldValue error_pressure_norm write:
    max(region0) of error_pres = 0.0038537588343

Courant Number mean: 0.0591805015307 max: 0.0729963593203
Time = 0.02625

PIMPLE: iteration 1
DILUPBiCGStab:  Solving for Ux, Initial residual = 0.00374924281234, Final residual = 3.68954584431e-09, No Iterations 4
DILUPBiCGStab:  Solving for Uy, Initial residual = 0.00374924279421, Final residual = 3.69110912037e-09, No Iterations 4
DICPCG:  Solving for p, Initial residual = 0.030909212468, Final residual = 0.000291316307518, No Iterations 35
time step continuity errors : sum local = 7.36836155547e-10, global = 4.46531689196e-21, cumulative = 7.95628282358e-20
DICPCG:  Solving for p, Initial residual = 0.0234992148544, Final residual = 0.000227980919969, No Iterations 35
time step continuity errors : sum local = 5.7023827598e-10, global = 1.01332099424e-20, cumulative = 8.96960381782e-20
DICPCG:  Solving for p, Initial residual = 0.000397127838059, Final residual = 3.22057058155e-06, No Iterations 84
time step continuity errors : sum local = 8.09240494901e-12, global = -1.14016268374e-20, cumulative = 7.82944113409e-20
DICPCG:  Solving for p, Initial residual = 8.22631104944e-05, Final residual = 9.95776751304e-13, No Iterations 182
time step continuity errors : sum local = 4.94041453032e-18, global = 4.9766593363e-20, cumulative = 1.28061004704e-19
ExecutionTime = 2.66 s  ClockTime = 31 s

volFieldValue error_velocity_norm write:
    max(region0) of error_velocity_mag = 2.93064214081e-05

volFieldValue L2_error_velocity_norm write:
    sqrt(sum(region0)) of error_velocity_mag_squ = 0.00265213402398

volFieldValue error_pressure_norm write:
    max(region0) of error_pres = 0.0038537588343

Courant Number mean: 0.0587325126997 max: 0.0724437863424
Time = 0.03

PIMPLE: iteration 1
DILUPBiCGStab:  Solving for Ux, Initial residual = 0.00374924311586, Final residual = 3.69032550364e-09, No Iterations 4
DILUPBiCGStab:  Solving for Uy, Initial residual = 0.00374924309739, Final residual = 3.69185001173e-09, No Iterations 4
DICPCG:  Solving for p, Initial residual = 0.0314670460286, Final residual = 0.0002965447519, No Iterations 35
time step continuity errors : sum local = 7.38636172147e-10, global = 4.28744078854e-21, cumulative = 1.32348445492e-19
DICPCG:  Solving for p, Initial residual = 0.0239266239652, Final residual = 0.000232122171197, No Iterations 35
time step continuity errors : sum local = 5.71673507062e-10, global = 2.94517299075e-20, cumulative = 1.618001754e-19
DICPCG:  Solving for p, Initial residual = 0.000404165283433, Final residual = 3.27776927045e-06, No Iterations 84
time step continuity errors : sum local = 8.11283274802e-12, global = 3.40875072326e-20, cumulative = 1.95887682633e-19
DICPCG:  Solving for p, Initial residual = 8.37317193173e-05, Final residual = 9.67578907947e-13, No Iterations 183
time step continuity errors : sum local = 4.85650065545e-18, global = -1.77390341395e-20, cumulative = 1.78148648493e-19
ExecutionTime = 3.03 s  ClockTime = 31 s

volFieldValue error_velocity_norm write:
    max(region0) of error_velocity_mag = 2.93064214081e-05

volFieldValue L2_error_velocity_norm write:
    sqrt(sum(region0)) of error_velocity_mag_squ = 0.00265213402398

volFieldValue error_pressure_norm write:
    max(region0) of error_pres = 0.0038537588343

Courant Number mean: 0.0582967758546 max: 0.0719063257557
Time = 0.03375

PIMPLE: iteration 1
DILUPBiCGStab:  Solving for Ux, Initial residual = 0.00374924307358, Final residual = 3.69108794586e-09, No Iterations 4
DILUPBiCGStab:  Solving for Uy, Initial residual = 0.00374924305574, Final residual = 3.69261833746e-09, No Iterations 4
DICPCG:  Solving for p, Initial residual = 0.0311789798907, Final residual = 0.000293844891449, No Iterations 35
time step continuity errors : sum local = 7.21148076886e-10, global = 5.69751465775e-20, cumulative = 2.35123795071e-19
DICPCG:  Solving for p, Initial residual = 0.0237059006244, Final residual = 0.000229987771715, No Iterations 35
time step continuity errors : sum local = 5.58127654705e-10, global = -1.40619897614e-21, cumulative = 2.33717596094e-19
DICPCG:  Solving for p, Initial residual = 0.000400535473957, Final residual = 3.24734771848e-06, No Iterations 84
time step continuity errors : sum local = 7.91823986196e-12, global = 1.99977035328e-21, cumulative = 2.35717366448e-19
DICPCG:  Solving for p, Initial residual = 8.29747008039e-05, Final residual = 9.59051004102e-13, No Iterations 183
time step continuity errors : sum local = 4.8465940192e-18, global = -1.39453336177e-20, cumulative = 2.2177203283e-19
ExecutionTime = 3.4 s  ClockTime = 32 s

volFieldValue error_velocity_norm write:
    max(region0) of error_velocity_mag = 2.93064214081e-05

volFieldValue L2_error_velocity_norm write:
    sqrt(sum(region0)) of error_velocity_mag_squ = 0.00265213402398

volFieldValue error_pressure_norm write:
    max(region0) of error_pres = 0.0038537588343

Courant Number mean: 0.057859719011 max: 0.0713672370021
Time = 0.0375

PIMPLE: iteration 1
DILUPBiCGStab:  Solving for Ux, Initial residual = 0.00374924320426, Final residual = 3.69182487289e-09, No Iterations 4
DILUPBiCGStab:  Solving for Uy, Initial residual = 0.0037492431862, Final residual = 3.6933387603e-09, No Iterations 4
DICPCG:  Solving for p, Initial residual = 0.031327679437, Final residual = 0.000295235940331, No Iterations 35
time step continuity errors : sum local = 7.13709118499e-10, global = -1.37503090024e-20, cumulative = 2.08021723828e-19
DICPCG:  Solving for p, Initial residual = 0.023819839066, Final residual = 0.000231091562128, No Iterations 35
time step continuity errors : sum local = 5.52385355828e-10, global = 2.10719192915e-20, cumulative = 2.29093643119e-19
DICPCG:  Solving for p, Initial residual = 0.000402412144014, Final residual = 3.26214805063e-06, No Iterations 84
time step continuity errors : sum local = 7.83574929924e-12, global = -2.90647358548e-20, cumulative = 2.00028907264e-19
DICPCG:  Solving for p, Initial residual = 8.33660340471e-05, Final residual = 9.6348789831e-13, No Iterations 183
time step continuity errors : sum local = 4.72283106613e-18, global = 1.80348644256e-21, cumulative = 2.01832393707e-19
ExecutionTime = 3.78 s  ClockTime = 32 s

volFieldValue error_velocity_norm write:
    max(region0) of error_velocity_mag = 2.93064214081e-05

volFieldValue L2_error_velocity_norm write:
    sqrt(sum(region0)) of error_velocity_mag_squ = 0.00265213402398

volFieldValue error_pressure_norm write:
    max(region0) of error_pres = 0.0038537588343

Courant Number mean: 0.0574282775175 max: 0.0708350745081
Time = 0.04125

PIMPLE: iteration 1
DILUPBiCGStab:  Solving for Ux, Initial residual = 0.00374924324554, Final residual = 3.69254170816e-09, No Iterations 4
DILUPBiCGStab:  Solving for Uy, Initial residual = 0.00374924322785, Final residual = 3.69405146737e-09, No Iterations 4
DICPCG:  Solving for p, Initial residual = 0.0312509253154, Final residual = 0.000294519196784, No Iterations 35
time step continuity errors : sum local = 7.01412668926e-10, global = 1.98164212522e-21, cumulative = 2.03814035832e-19
DICPCG:  Solving for p, Initial residual = 0.023761031418, Final residual = 0.000230525986662, No Iterations 35
time step continuity errors : sum local = 5.42868406565e-10, global = -3.48202435465e-20, cumulative = 1.68993792286e-19
DICPCG:  Solving for p, Initial residual = 0.000401447445493, Final residual = 3.2536419152e-06, No Iterations 84
time step continuity errors : sum local = 7.69906915997e-12, global = 1.29123984893e-20, cumulative = 1.81906190775e-19
DICPCG:  Solving for p, Initial residual = 8.31648682203e-05, Final residual = 9.6116912169e-13, No Iterations 183
time step continuity errors : sum local = 4.68136227808e-18, global = 2.10550167015e-20, cumulative = 2.02961207476e-19
ExecutionTime = 4.15 s  ClockTime = 32 s

volFieldValue error_velocity_norm write:
    max(region0) of error_velocity_mag = 2.93064214081e-05

volFieldValue L2_error_velocity_norm write:
    sqrt(sum(region0)) of error_velocity_mag_squ = 0.00265213402398

volFieldValue error_pressure_norm write:
    max(region0) of error_pres = 0.0038537588343

Courant Number mean: 0.0569988516891 max: 0.0703053982321
Time = 0.045

PIMPLE: iteration 1
DILUPBiCGStab:  Solving for Ux, Initial residual = 0.0037492433293, Final residual = 3.69323684959e-09, No Iterations 4
DILUPBiCGStab:  Solving for Uy, Initial residual = 0.0037492433116, Final residual = 3.69473684421e-09, No Iterations 4
DICPCG:  Solving for p, Initial residual = 0.0312905489738, Final residual = 0.00029488644073, No Iterations 35
time step continuity errors : sum local = 6.91816057428e-10, global = 2.59767752134e-22, cumulative = 2.03220975228e-19
DICPCG:  Solving for p, Initial residual = 0.0237913950827, Final residual = 0.000230820202123, No Iterations 35
time step continuity errors : sum local = 5.35450845418e-10, global = 2.4168030823e-22, cumulative = 2.03462655537e-19
DICPCG:  Solving for p, Initial residual = 0.000401948486961, Final residual = 3.2571571492e-06, No Iterations 84
time step continuity errors : sum local = 7.59261482038e-12, global = 2.80641679916e-22, cumulative = 2.03743297217e-19
DICPCG:  Solving for p, Initial residual = 8.32694600899e-05, Final residual = 9.9859832576e-13, No Iterations 181
time step continuity errors : sum local = 4.66043535078e-18, global = 9.37889226872e-21, cumulative = 2.13122189485e-19
ExecutionTime = 4.53 s  ClockTime = 33 s

volFieldValue error_velocity_norm write:
    max(region0) of error_velocity_mag = 2.93064214081e-05

volFieldValue L2_error_velocity_norm write:
    sqrt(sum(region0)) of error_velocity_mag_squ = 0.00265213402398

volFieldValue error_pressure_norm write:
    max(region0) of error_pres = 0.0038537588343

Courant Number mean: 0.0565732540871 max: 0.0697804438836
Time = 0.04875

PIMPLE: iteration 1
DILUPBiCGStab:  Solving for Ux, Initial residual = 0.00374924339015, Final residual = 3.69391193439e-09, No Iterations 4
DILUPBiCGStab:  Solving for Uy, Initial residual = 0.00374924337266, Final residual = 3.69540522411e-09, No Iterations 4
DICPCG:  Solving for p, Initial residual = 0.0312701058293, Final residual = 0.000294698392835, No Iterations 35
time step continuity errors : sum local = 6.81092245592e-10, global = 4.12455887754e-20, cumulative = 2.54367778261e-19
DICPCG:  Solving for p, Initial residual = 0.0237757340365, Final residual = 0.000230672637439, No Iterations 35
time step continuity errors : sum local = 5.27153112792e-10, global = 5.21968603336e-20, cumulative = 3.06564638594e-19
DICPCG:  Solving for p, Initial residual = 0.000401693883798, Final residual = 3.25449702411e-06, No Iterations 84
time step continuity errors : sum local = 7.47350727472e-12, global = 1.98266179063e-20, cumulative = 3.26391256501e-19
DICPCG:  Solving for p, Initial residual = 8.32162499259e-05, Final residual = 9.6177906588e-13, No Iterations 183
time step continuity errors : sum local = 4.64479454599e-18, global = 2.39782632211e-21, cumulative = 3.28789082823e-19
ExecutionTime = 4.92 s  ClockTime = 33 s

volFieldValue error_velocity_norm write:
    max(region0) of error_velocity_mag = 2.93064214081e-05

volFieldValue L2_error_velocity_norm write:
    sqrt(sum(region0)) of error_velocity_mag_squ = 0.00265213402398

volFieldValue error_pressure_norm write:
    max(region0) of error_pres = 0.0038537588343

Courant Number mean: 0.0561505172738 max: 0.069259018174
Time = 0.0525

PIMPLE: iteration 1
DILUPBiCGStab:  Solving for Ux, Initial residual = 0.00374924345998, Final residual = 3.69456723685e-09, No Iterations 4
DILUPBiCGStab:  Solving for Uy, Initial residual = 0.00374924344257, Final residual = 3.69605228745e-09, No Iterations 4
DICPCG:  Solving for p, Initial residual = 0.0312806653862, Final residual = 0.000294793480186, No Iterations 35
time step continuity errors : sum local = 6.71166020735e-10, global = -1.89484895207e-20, cumulative = 3.09840593302e-19
DICPCG:  Solving for p, Initial residual = 0.0237838282874, Final residual = 0.00023075140134, No Iterations 35
time step continuity errors : sum local = 5.19478296833e-10, global = 5.04617527403e-21, cumulative = 3.14886768576e-19
DICPCG:  Solving for p, Initial residual = 0.000401828606972, Final residual = 3.25502934453e-06, No Iterations 84
time step continuity errors : sum local = 7.36345342964e-12, global = -1.2253168026e-20, cumulative = 3.0263360055e-19
DICPCG:  Solving for p, Initial residual = 8.32445077761e-05, Final residual = 9.6211377555e-13, No Iterations 183
time step continuity errors : sum local = 4.47031913204e-18, global = -1.26375588319e-20, cumulative = 2.89996041718e-19
ExecutionTime = 5.29 s  ClockTime = 34 s

volFieldValue error_velocity_norm write:
    max(region0) of error_velocity_mag = 2.93064214081e-05

volFieldValue L2_error_velocity_norm write:
    sqrt(sum(region0)) of error_velocity_mag_squ = 0.00265213402398

volFieldValue error_pressure_norm write:
    max(region0) of error_pres = 0.0038537588343

Courant Number mean: 0.0557311021525 max: 0.0687416896064
Time = 0.05625

PIMPLE: iteration 1
DILUPBiCGStab:  Solving for Ux, Initial residual = 0.00374924352362, Final residual = 3.69520358579e-09, No Iterations 4
DILUPBiCGStab:  Solving for Uy, Initial residual = 0.00374924350637, Final residual = 3.69668122831e-09, No Iterations 4
DICPCG:  Solving for p, Initial residual = 0.0312752247502, Final residual = 0.000294745881277, No Iterations 35
time step continuity errors : sum local = 6.61070824491e-10, global = 2.65939467713e-20, cumulative = 3.16589988489e-19
DICPCG:  Solving for p, Initial residual = 0.0237796621941, Final residual = 0.000230714843602, No Iterations 35
time step continuity errors : sum local = 5.11667288632e-10, global = 1.33371099108e-20, cumulative = 3.299270984e-19
DICPCG:  Solving for p, Initial residual = 0.000401763014789, Final residual = 3.25393228003e-06, No Iterations 84
time step continuity errors : sum local = 7.25140437671e-12, global = 2.14390210354e-20, cumulative = 3.51366119436e-19
DICPCG:  Solving for p, Initial residual = 8.32306995937e-05, Final residual = 9.61941446253e-13, No Iterations 183
time step continuity errors : sum local = 4.48452066876e-18, global = 1.31032486439e-21, cumulative = 3.526764443e-19
ExecutionTime = 5.67 s  ClockTime = 34 s

volFieldValue error_velocity_norm write:
    max(region0) of error_velocity_mag = 2.93064214081e-05

volFieldValue L2_error_velocity_norm write:
    sqrt(sum(region0)) of error_velocity_mag_squ = 0.00265213402398

volFieldValue error_pressure_norm write:
    max(region0) of error_pres = 0.0038537588343

Courant Number mean: 0.0553147361697 max: 0.068228121999
Time = 0.06

PIMPLE: iteration 1
DILUPBiCGStab:  Solving for Ux, Initial residual = 0.00374924358835, Final residual = 3.69582182074e-09, No Iterations 4
DILUPBiCGStab:  Solving for Uy, Initial residual = 0.0037492435712, Final residual = 3.69729165007e-09, No Iterations 4
DICPCG:  Solving for p, Initial residual = 0.0312780415748, Final residual = 0.00029476900353, No Iterations 35
time step continuity errors : sum local = 6.5128060122e-10, global = 1.29802506141e-20, cumulative = 3.65656694914e-19
DICPCG:  Solving for p, Initial residual = 0.0237818236739, Final residual = 0.000230736465839, No Iterations 35
time step continuity errors : sum local = 5.04096602348e-10, global = 9.02890234807e-21, cumulative = 3.74685597262e-19
DICPCG:  Solving for p, Initial residual = 0.000401800245481, Final residual = 3.25368590453e-06, No Iterations 84
time step continuity errors : sum local = 7.1429196503e-12, global = 1.78968116639e-20, cumulative = 3.92582408926e-19
DICPCG:  Solving for p, Initial residual = 8.3238641442e-05, Final residual = 9.62044150783e-13, No Iterations 183
time step continuity errors : sum local = 4.47634447138e-18, global = -2.22520455995e-20, cumulative = 3.70330363327e-19
ExecutionTime = 6.04 s  ClockTime = 34 s

volFieldValue error_velocity_norm write:
    max(region0) of error_velocity_mag = 2.93064214081e-05

volFieldValue L2_error_velocity_norm write:
    sqrt(sum(region0)) of error_velocity_mag_squ = 0.00265213402398

volFieldValue error_pressure_norm write:
    max(region0) of error_pres = 0.0038537588343

Courant Number mean: 0.0549015238084 max: 0.0677184442272
Time = 0.06375

PIMPLE: iteration 1
DILUPBiCGStab:  Solving for Ux, Initial residual = 0.00374924365055, Final residual = 3.69642291963e-09, No Iterations 4
DILUPBiCGStab:  Solving for Uy, Initial residual = 0.00374924363354, Final residual = 3.69788554602e-09, No Iterations 4
DICPCG:  Solving for p, Initial residual = 0.03127659728, Final residual = 0.000294758112166, No Iterations 35
time step continuity errors : sum local = 6.41562794568e-10, global = 2.45237138859e-21, cumulative = 3.72782734715e-19
DICPCG:  Solving for p, Initial residual = 0.0237807196598, Final residual = 0.000230729167546, No Iterations 35
time step continuity errors : sum local = 4.96578037237e-10, global = 2.12757683986e-21, cumulative = 3.74910311555e-19
DICPCG:  Solving for p, Initial residual = 0.000401784855638, Final residual = 3.25300942353e-06, No Iterations 84
time step continuity errors : sum local = 7.03513094511e-12, global = 7.48716397762e-21, cumulative = 3.82397475533e-19
DICPCG:  Solving for p, Initial residual = 8.32353522912e-05, Final residual = 9.61995390172e-13, No Iterations 183
time step continuity errors : sum local = 4.33056651486e-18, global = 3.71606448651e-20, cumulative = 4.19558120398e-19
ExecutionTime = 6.42 s  ClockTime = 35 s

volFieldValue error_velocity_norm write:
    max(region0) of error_velocity_mag = 2.93064214081e-05

volFieldValue L2_error_velocity_norm write:
    sqrt(sum(region0)) of error_velocity_mag_squ = 0.00265213402398

volFieldValue error_pressure_norm write:
    max(region0) of error_pres = 0.0038537588343

Courant Number mean: 0.0544913761376 max: 0.0672125465989
Time = 0.0675

PIMPLE: iteration 1
DILUPBiCGStab:  Solving for Ux, Initial residual = 0.00374924371225, Final residual = 3.69700732972e-09, No Iterations 4
DILUPBiCGStab:  Solving for Uy, Initial residual = 0.00374924369535, Final residual = 3.6984641055e-09, No Iterations 4
DICPCG:  Solving for p, Initial residual = 0.0312773521282, Final residual = 0.000294762687486, No Iterations 35
time step continuity errors : sum local = 6.32022504007e-10, global = -2.53009915371e-20, cumulative = 3.94257128861e-19
DICPCG:  Solving for p, Initial residual = 0.0237813009483, Final residual = 0.000230735816976, No Iterations 35
time step continuity errors : sum local = 4.8919980372e-10, global = 2.67722848824e-20, cumulative = 4.21029413743e-19
DICPCG:  Solving for p, Initial residual = 0.000401796216489, Final residual = 3.25256685266e-06, No Iterations 84
time step continuity errors : sum local = 6.92946551079e-12, global = 6.39497598233e-21, cumulative = 4.27424389726e-19
DICPCG:  Solving for p, Initial residual = 8.32378657604e-05, Final residual = 9.62025742403e-13, No Iterations 183
time step continuity errors : sum local = 4.36008548622e-18, global = -2.90718588305e-20, cumulative = 3.98352530895e-19
ExecutionTime = 6.81 s  ClockTime = 35 s

volFieldValue error_velocity_norm write:
    max(region0) of error_velocity_mag = 2.93064214081e-05

volFieldValue L2_error_velocity_norm write:
    sqrt(sum(region0)) of error_velocity_mag_squ = 0.00265213402398

volFieldValue error_pressure_norm write:
    max(region0) of error_pres = 0.0038537588343

Courant Number mean: 0.0540843038441 max: 0.0667104422964
Time = 0.07125

PIMPLE: iteration 1
DILUPBiCGStab:  Solving for Ux, Initial residual = 0.00374924377231, Final residual = 3.69757680476e-09, No Iterations 4
DILUPBiCGStab:  Solving for Uy, Initial residual = 0.00374924375553, Final residual = 3.69902608775e-09, No Iterations 4
DICPCG:  Solving for p, Initial residual = 0.0312769724262, Final residual = 0.000294761049358, No Iterations 35
time step continuity errors : sum local = 6.22611216513e-10, global = 3.88165975025e-20, cumulative = 4.37169128398e-19
DICPCG:  Solving for p, Initial residual = 0.0237810125844, Final residual = 0.000230736105408, No Iterations 35
time step continuity errors : sum local = 4.81918776529e-10, global = 7.60188238253e-21, cumulative = 4.4477101078e-19
DICPCG:  Solving for p, Initial residual = 0.000401794147936, Final residual = 3.25201377022e-06, No Iterations 84
time step continuity errors : sum local = 6.82515545006e-12, global = 1.22508011205e-20, cumulative = 4.57021811901e-19
DICPCG:  Solving for p, Initial residual = 8.32374009176e-05, Final residual = 9.67812455029e-13, No Iterations 180
time step continuity errors : sum local = 4.2568025189e-18, global = 7.40832545117e-21, cumulative = 4.64430137352e-19
ExecutionTime = 7.19 s  ClockTime = 36 s

volFieldValue error_velocity_norm write:
    max(region0) of error_velocity_mag = 2.93064214081e-05

volFieldValue L2_error_velocity_norm write:
    sqrt(sum(region0)) of error_velocity_mag_squ = 0.00265213402398

volFieldValue error_pressure_norm write:
    max(region0) of error_pres = 0.0038537588343

Courant Number mean: 0.0536802667037 max: 0.0662120817052
Time = 0.075

PIMPLE: iteration 1
DILUPBiCGStab:  Solving for Ux, Initial residual = 0.00374924383143, Final residual = 3.69813030555e-09, No Iterations 4
DILUPBiCGStab:  Solving for Uy, Initial residual = 0.00374924381477, Final residual = 3.69957223014e-09, No Iterations 4
DICPCG:  Solving for p, Initial residual = 0.0312771783453, Final residual = 0.000294761077237, No Iterations 35
time step continuity errors : sum local = 6.13343465246e-10, global = 1.25663907504e-20, cumulative = 4.76996528102e-19
DICPCG:  Solving for p, Initial residual = 0.0237811730494, Final residual = 0.000230738964543, No Iterations 35
time step continuity errors : sum local = 4.7475081913e-10, global = 1.55049937787e-20, cumulative = 4.92501521881e-19
DICPCG:  Solving for p, Initial residual = 0.000401798812965, Final residual = 3.2515274817e-06, No Iterations 84
time step continuity errors : sum local = 6.72255345131e-12, global = -4.19051566718e-20, cumulative = 4.50596365209e-19
DICPCG:  Solving for p, Initial residual = 8.32384840201e-05, Final residual = 9.62045404466e-13, No Iterations 183
time step continuity errors : sum local = 4.13493014089e-18, global = 1.26660158818e-20, cumulative = 4.63262381091e-19
ExecutionTime = 7.56 s  ClockTime = 36 s

volFieldValue error_velocity_norm write:
    max(region0) of error_velocity_mag = 2.93064214081e-05

volFieldValue L2_error_velocity_norm write:
    sqrt(sum(region0)) of error_velocity_mag_squ = 0.00265213402398

volFieldValue error_pressure_norm write:
    max(region0) of error_pres = 0.0038537588343

Courant Number mean: 0.053279250904 max: 0.0657174477887
Time = 0.07875

PIMPLE: iteration 1
DILUPBiCGStab:  Solving for Ux, Initial residual = 0.00374924388925, Final residual = 3.69866807712e-09, No Iterations 4
DILUPBiCGStab:  Solving for Uy, Initial residual = 0.0037492438727, Final residual = 3.70010272156e-09, No Iterations 4
DICPCG:  Solving for p, Initial residual = 0.0312770823902, Final residual = 0.000294761554023, No Iterations 35
time step continuity errors : sum local = 6.04214585102e-10, global = 3.73247023735e-20, cumulative = 5.00587083464e-19
DICPCG:  Solving for p, Initial residual = 0.0237811019449, Final residual = 0.000230741116499, No Iterations 35
time step continuity errors : sum local = 4.67688472191e-10, global = 2.50437601129e-20, cumulative = 5.25630843577e-19
DICPCG:  Solving for p, Initial residual = 0.000401800326291, Final residual = 3.25101853883e-06, No Iterations 84
time step continuity errors : sum local = 6.62144733617e-12, global = -3.28219021121e-21, cumulative = 5.22348653366e-19
DICPCG:  Solving for p, Initial residual = 8.32387825367e-05, Final residual = 9.62038634617e-13, No Iterations 183
time step continuity errors : sum local = 4.19703385052e-18, global = 2.09180789395e-20, cumulative = 5.43266732306e-19
ExecutionTime = 7.94 s  ClockTime = 36 s

volFieldValue error_velocity_norm write:
    max(region0) of error_velocity_mag = 2.93064214081e-05

volFieldValue L2_error_velocity_norm write:
    sqrt(sum(region0)) of error_velocity_mag_squ = 0.00265213402398

volFieldValue error_pressure_norm write:
    max(region0) of error_pres = 0.0038537588343

Courant Number mean: 0.0528812293228 max: 0.0652265070929
Time = 0.0825

PIMPLE: iteration 1
DILUPBiCGStab:  Solving for Ux, Initial residual = 0.00374924394601, Final residual = 3.69919023746e-09, No Iterations 4
DILUPBiCGStab:  Solving for Uy, Initial residual = 0.00374924392957, Final residual = 3.70061759611e-09, No Iterations 4
DICPCG:  Solving for p, Initial residual = 0.0312771425151, Final residual = 0.000294760632876, No Iterations 35
time step continuity errors : sum local = 5.95218794391e-10, global = -6.51287840005e-21, cumulative = 5.36753853906e-19
DICPCG:  Solving for p, Initial residual = 0.0237811503893, Final residual = 0.000230743111299, No Iterations 35
time step continuity errors : sum local = 4.60730537351e-10, global = 4.70585160969e-21, cumulative = 5.41459705515e-19
DICPCG:  Solving for p, Initial residual = 0.000401803252289, Final residual = 3.25052837659e-06, No Iterations 84
time step continuity errors : sum local = 6.52189968405e-12, global = -2.81868147293e-20, cumulative = 5.13272890786e-19
DICPCG:  Solving for p, Initial residual = 8.32394816806e-05, Final residual = 9.62026147438e-13, No Iterations 183
time step continuity errors : sum local = 4.11702048028e-18, global = 2.43569869407e-20, cumulative = 5.37629877727e-19
ExecutionTime = 8.31 s  ClockTime = 37 s

volFieldValue error_velocity_norm write:
    max(region0) of error_velocity_mag = 2.93064214081e-05

volFieldValue L2_error_velocity_norm write:
    sqrt(sum(region0)) of error_velocity_mag_squ = 0.00265213402398

volFieldValue error_pressure_norm write:
    max(region0) of error_pres = 0.0038537588343

Courant Number mean: 0.0524861819304 max: 0.0647392349128
Time = 0.08625

PIMPLE: iteration 1
DILUPBiCGStab:  Solving for Ux, Initial residual = 0.00374924400161, Final residual = 3.69969720546e-09, No Iterations 4
DILUPBiCGStab:  Solving for Uy, Initial residual = 0.00374924398528, Final residual = 3.70111713581e-09, No Iterations 4
DICPCG:  Solving for p, Initial residual = 0.0312771223611, Final residual = 0.000294761409679, No Iterations 35
time step continuity errors : sum local = 5.86360272142e-10, global = -4.61842058307e-20, cumulative = 4.91445671896e-19
DICPCG:  Solving for p, Initial residual = 0.0237811374173, Final residual = 0.000230745645734, No Iterations 35
time step continuity errors : sum local = 4.53877448901e-10, global = -3.52983083606e-20, cumulative = 4.56147363535e-19
DICPCG:  Solving for p, Initial residual = 0.000401805672378, Final residual = 3.25004544183e-06, No Iterations 84
time step continuity errors : sum local = 6.42386233655e-12, global = 1.63457468201e-20, cumulative = 4.72493110355e-19
DICPCG:  Solving for p, Initial residual = 8.3239992694e-05, Final residual = 9.62063952272e-13, No Iterations 183
time step continuity errors : sum local = 4.08695859506e-18, global = -1.24782296219e-20, cumulative = 4.60014880734e-19
ExecutionTime = 8.69 s  ClockTime = 37 s

volFieldValue error_velocity_norm write:
    max(region0) of error_velocity_mag = 2.93064214081e-05

volFieldValue L2_error_velocity_norm write:
    sqrt(sum(region0)) of error_velocity_mag_squ = 0.00265213402398

volFieldValue error_pressure_norm write:
    max(region0) of error_pres = 0.0038537588343

Courant Number mean: 0.0520940853076 max: 0.0642556023618
Time = 0.09

PIMPLE: iteration 1
DILUPBiCGStab:  Solving for Ux, Initial residual = 0.00374924405614, Final residual = 3.70018931841e-09, No Iterations 4
DILUPBiCGStab:  Solving for Uy, Initial residual = 0.00374924403993, Final residual = 3.70160193825e-09, No Iterations 4
DICPCG:  Solving for p, Initial residual = 0.0312771438734, Final residual = 0.000294760469532, No Iterations 35
time step continuity errors : sum local = 5.77630270807e-10, global = -1.70584302054e-20, cumulative = 4.42956450528e-19
DICPCG:  Solving for p, Initial residual = 0.0237811563812, Final residual = 0.000230747504453, No Iterations 35
time step continuity errors : sum local = 4.47124763244e-10, global = 2.65445724618e-20, cumulative = 4.6950102299e-19
DICPCG:  Solving for p, Initial residual = 0.000401808293923, Final residual = 3.2495699868e-06, No Iterations 84
time step continuity errors : sum local = 6.32731345403e-12, global = -1.42209992126e-20, cumulative = 4.55280023777e-19
DICPCG:  Solving for p, Initial residual = 8.3240606132e-05, Final residual = 9.62062293789e-13, No Iterations 183
time step continuity errors : sum local = 4.02422570402e-18, global = 1.06332773063e-20, cumulative = 4.65913301084e-19
ExecutionTime = 9.07 s  ClockTime = 37 s

volFieldValue error_velocity_norm write:
    max(region0) of error_velocity_mag = 2.93064214081e-05

volFieldValue L2_error_velocity_norm write:
    sqrt(sum(region0)) of error_velocity_mag_squ = 0.00265213402398

volFieldValue error_pressure_norm write:
    max(region0) of error_pres = 0.0038537588343

Courant Number mean: 0.0517049180282 max: 0.0637755830121
Time = 0.09375

PIMPLE: iteration 1
DILUPBiCGStab:  Solving for Ux, Initial residual = 0.00374924410958, Final residual = 3.70066747829e-09, No Iterations 4
DILUPBiCGStab:  Solving for Uy, Initial residual = 0.00374924409348, Final residual = 3.70207310529e-09, No Iterations 4
DICPCG:  Solving for p, Initial residual = 0.0312771440967, Final residual = 0.00029476113514, No Iterations 35
time step continuity errors : sum local = 5.69033310952e-10, global = 1.83046786622e-20, cumulative = 4.84217979746e-19
DICPCG:  Solving for p, Initial residual = 0.0237811589393, Final residual = 0.00023075004823, No Iterations 35
time step continuity errors : sum local = 4.40474039448e-10, global = 1.7501071287e-20, cumulative = 5.01719051033e-19
DICPCG:  Solving for p, Initial residual = 0.000401811065508, Final residual = 3.24910081626e-06, No Iterations 84
time step continuity errors : sum local = 6.2322272805e-12, global = 3.36892420682e-20, cumulative = 5.35408293101e-19
DICPCG:  Solving for p, Initial residual = 8.32411846145e-05, Final residual = 9.62064835576e-13, No Iterations 183
time step continuity errors : sum local = 3.87378442191e-18, global = 3.69140799288e-20, cumulative = 5.7232237303e-19
ExecutionTime = 9.45 s  ClockTime = 38 s

volFieldValue error_velocity_norm write:
    max(region0) of error_velocity_mag = 2.93064214081e-05

volFieldValue L2_error_velocity_norm write:
    sqrt(sum(region0)) of error_velocity_mag_squ = 0.00265213402398

volFieldValue error_pressure_norm write:
    max(region0) of error_pres = 0.0038537588343

Courant Number mean: 0.051318657892 max: 0.063299149481
Time = 0.0975

PIMPLE: iteration 1
DILUPBiCGStab:  Solving for Ux, Initial residual = 0.00374924416198, Final residual = 3.70113188471e-09, No Iterations 4
DILUPBiCGStab:  Solving for Uy, Initial residual = 0.00374924414599, Final residual = 3.70253043933e-09, No Iterations 4
DICPCG:  Solving for p, Initial residual = 0.0312771556241, Final residual = 0.000294760285232, No Iterations 35
time step continuity errors : sum local = 5.60561455422e-10, global = 2.44882964392e-20, cumulative = 5.96810669469e-19
DICPCG:  Solving for p, Initial residual = 0.0237811701424, Final residual = 0.000230751982995, No Iterations 35
time step continuity errors : sum local = 4.33920934324e-10, global = -2.37295933828e-20, cumulative = 5.73081076086e-19
DICPCG:  Solving for p, Initial residual = 0.000401813611899, Final residual = 3.2486460982e-06, No Iterations 84
time step continuity errors : sum local = 6.13859746224e-12, global = -1.44822775379e-21, cumulative = 5.71632848332e-19
DICPCG:  Solving for p, Initial residual = 8.32417695794e-05, Final residual = 9.62222047197e-13, No Iterations 183
time step continuity errors : sum local = 3.82852254671e-18, global = 1.25378772129e-20, cumulative = 5.84170725545e-19
ExecutionTime = 9.82 s  ClockTime = 38 s

volFieldValue error_velocity_norm write:
    max(region0) of error_velocity_mag = 2.93064214081e-05

volFieldValue L2_error_velocity_norm write:
    sqrt(sum(region0)) of error_velocity_mag_squ = 0.00265213402398

volFieldValue error_pressure_norm write:
    max(region0) of error_pres = 0.0038537588343

Courant Number mean: 0.0509352833444 max: 0.0628262751823
Time = 0.10125

PIMPLE: iteration 1
DILUPBiCGStab:  Solving for Ux, Initial residual = 0.00374924421336, Final residual = 3.70158304043e-09, No Iterations 4
DILUPBiCGStab:  Solving for Uy, Initial residual = 0.00374924419747, Final residual = 3.70297430097e-09, No Iterations 4
DICPCG:  Solving for p, Initial residual = 0.0312771616267, Final residual = 0.000294760783201, No Iterations 35
time step continuity errors : sum local = 5.52218230036e-10, global = -1.87804522953e-20, cumulative = 5.6539027325e-19
DICPCG:  Solving for p, Initial residual = 0.0237811772237, Final residual = 0.000230754500096, No Iterations 35
time step continuity errors : sum local = 4.27466538606e-10, global = 2.52354257316e-20, cumulative = 5.90625698982e-19
DICPCG:  Solving for p, Initial residual = 0.000401816402379, Final residual = 3.24818285344e-06, No Iterations 84
time step continuity errors : sum local = 6.04635795931e-12, global = 1.51201354312e-21, cumulative = 5.92137712525e-19
DICPCG:  Solving for p, Initial residual = 8.32423852768e-05, Final residual = 9.62088366502e-13, No Iterations 183
time step continuity errors : sum local = 3.7896996115e-18, global = 3.34594281841e-20, cumulative = 6.25597140709e-19
ExecutionTime = 10.19 s  ClockTime = 39 s

volFieldValue error_velocity_norm write:
    max(region0) of error_velocity_mag = 2.93064214081e-05

volFieldValue L2_error_velocity_norm write:
    sqrt(sum(region0)) of error_velocity_mag_squ = 0.00265213402398

volFieldValue error_pressure_norm write:
    max(region0) of error_pres = 0.0038537588343

Courant Number mean: 0.0505547727456 max: 0.0623569334242
Time = 0.105

PIMPLE: iteration 1
DILUPBiCGStab:  Solving for Ux, Initial residual = 0.00374924426372, Final residual = 3.70202123175e-09, No Iterations 4
DILUPBiCGStab:  Solving for Uy, Initial residual = 0.00374924424795, Final residual = 3.70340500122e-09, No Iterations 4
DICPCG:  Solving for p, Initial residual = 0.0312771708566, Final residual = 0.0002947600915, No Iterations 35
time step continuity errors : sum local = 5.4399701306e-10, global = -6.15510215953e-21, cumulative = 6.19442038549e-19
DICPCG:  Solving for p, Initial residual = 0.0237811868142, Final residual = 0.000230756489739, No Iterations 35
time step continuity errors : sum local = 4.21107070243e-10, global = 4.75638645079e-21, cumulative = 6.24198425e-19
DICPCG:  Solving for p, Initial residual = 0.000401818973318, Final residual = 3.24773224873e-06, No Iterations 84
time step continuity errors : sum local = 5.95552779701e-12, global = 1.69617683063e-20, cumulative = 6.41160193307e-19
DICPCG:  Solving for p, Initial residual = 8.32429905797e-05, Final residual = 9.62082453169e-13, No Iterations 183
time step continuity errors : sum local = 3.72740280749e-18, global = -1.07146894527e-20, cumulative = 6.30445503854e-19
ExecutionTime = 10.57 s  ClockTime = 39 s

volFieldValue error_velocity_norm write:
    max(region0) of error_velocity_mag = 2.93064214081e-05

volFieldValue L2_error_velocity_norm write:
    sqrt(sum(region0)) of error_velocity_mag_squ = 0.00265213402398

volFieldValue error_pressure_norm write:
    max(region0) of error_pres = 0.0038537588343

Courant Number mean: 0.0501771047439 max: 0.0618910978708
Time = 0.10875

PIMPLE: iteration 1
DILUPBiCGStab:  Solving for Ux, Initial residual = 0.00374924431311, Final residual = 3.70244697521e-09, No Iterations 4
DILUPBiCGStab:  Solving for Uy, Initial residual = 0.00374924429744, Final residual = 3.70382343992e-09, No Iterations 4
DICPCG:  Solving for p, Initial residual = 0.0312771787815, Final residual = 0.000294760155259, No Iterations 35
time step continuity errors : sum local = 5.35899559317e-10, global = -3.71358983248e-20, cumulative = 5.93309605529e-19
DICPCG:  Solving for p, Initial residual = 0.0237811953685, Final residual = 0.00023075896772, No Iterations 35
time step continuity errors : sum local = 4.14843159848e-10, global = -1.82904271393e-20, cumulative = 5.7501917839e-19
DICPCG:  Solving for p, Initial residual = 0.000401821807831, Final residual = 3.24728954097e-06, No Iterations 84
time step continuity errors : sum local = 5.86607600136e-12, global = -2.09157558553e-21, cumulative = 5.72927602804e-19
DICPCG:  Solving for p, Initial residual = 8.32436145024e-05, Final residual = 9.62091948572e-13, No Iterations 183
time step continuity errors : sum local = 3.61442819711e-18, global = -9.5996989737e-21, cumulative = 5.6332790383e-19
ExecutionTime = 10.95 s  ClockTime = 39 s

volFieldValue error_velocity_norm write:
    max(region0) of error_velocity_mag = 2.93064214081e-05

volFieldValue L2_error_velocity_norm write:
    sqrt(sum(region0)) of error_velocity_mag_squ = 0.00265213402398

volFieldValue error_pressure_norm write:
    max(region0) of error_pres = 0.0038537588343

Courant Number mean: 0.0498022580818 max: 0.0614287423023
Time = 0.1125

PIMPLE: iteration 1
DILUPBiCGStab:  Solving for Ux, Initial residual = 0.00374924436153, Final residual = 3.70286048686e-09, No Iterations 4
DILUPBiCGStab:  Solving for Uy, Initial residual = 0.00374924434596, Final residual = 3.70422978403e-09, No Iterations 4
DICPCG:  Solving for p, Initial residual = 0.0312771877598, Final residual = 0.000294759505529, No Iterations 35
time step continuity errors : sum local = 5.27921371867e-10, global = 1.8896812232e-20, cumulative = 5.82224716062e-19
DICPCG:  Solving for p, Initial residual = 0.0237812045795, Final residual = 0.000230761140873, No Iterations 35
time step continuity errors : sum local = 4.08671816316e-10, global = 3.44462310358e-20, cumulative = 6.16670947098e-19
DICPCG:  Solving for p, Initial residual = 0.000401824487583, Final residual = 3.24685194482e-06, No Iterations 84
time step continuity errors : sum local = 5.77797691346e-12, global = 1.76430643758e-21, cumulative = 6.18435253536e-19
DICPCG:  Solving for p, Initial residual = 8.3244232114e-05, Final residual = 9.62099057156e-13, No Iterations 183
time step continuity errors : sum local = 3.55253782645e-18, global = 1.58507785602e-20, cumulative = 6.34286032096e-19
ExecutionTime = 11.32 s  ClockTime = 40 s

volFieldValue error_velocity_norm write:
    max(region0) of error_velocity_mag = 2.93064214081e-05

volFieldValue L2_error_velocity_norm write:
    sqrt(sum(region0)) of error_velocity_mag_squ = 0.00265213402398

volFieldValue error_pressure_norm write:
    max(region0) of error_pres = 0.0038537588343

Courant Number mean: 0.0494302116945 max: 0.0609698407362
Time = 0.11625

PIMPLE: iteration 1
DILUPBiCGStab:  Solving for Ux, Initial residual = 0.003749244409, Final residual = 3.70326217555e-09, No Iterations 4
DILUPBiCGStab:  Solving for Uy, Initial residual = 0.00374924439354, Final residual = 3.70462455653e-09, No Iterations 4
DICPCG:  Solving for p, Initial residual = 0.0312771964523, Final residual = 0.000294759678102, No Iterations 35
time step continuity errors : sum local = 5.20063395471e-10, global = -2.14019247841e-21, cumulative = 6.32145839618e-19
DICPCG:  Solving for p, Initial residual = 0.0237812138197, Final residual = 0.000230763698734, No Iterations 35
time step continuity errors : sum local = 4.02593032905e-10, global = 1.25380958978e-20, cumulative = 6.44683935515e-19
DICPCG:  Solving for p, Initial residual = 0.000401827320859, Final residual = 3.24642138981e-06, No Iterations 84
time step continuity errors : sum local = 5.69121304225e-12, global = 1.31498629282e-21, cumulative = 6.45998921808e-19
DICPCG:  Solving for p, Initial residual = 8.32448679437e-05, Final residual = 9.62226679962e-13, No Iterations 183
time step continuity errors : sum local = 3.41508484859e-18, global = 2.90168326104e-20, cumulative = 6.75015754419e-19
ExecutionTime = 11.7 s  ClockTime = 40 s

volFieldValue error_velocity_norm write:
    max(region0) of error_velocity_mag = 2.93064214081e-05

volFieldValue L2_error_velocity_norm write:
    sqrt(sum(region0)) of error_velocity_mag_squ = 0.00265213402398

volFieldValue error_pressure_norm write:
    max(region0) of error_pres = 0.0038537588343

Courant Number mean: 0.049060944657 max: 0.0605143673628
Time = 0.12

PIMPLE: iteration 1
DILUPBiCGStab:  Solving for Ux, Initial residual = 0.00374924445555, Final residual = 3.70365244913e-09, No Iterations 4
DILUPBiCGStab:  Solving for Uy, Initial residual = 0.00374924444019, Final residual = 3.70500816991e-09, No Iterations 4
DICPCG:  Solving for p, Initial residual = 0.0312772055319, Final residual = 0.000294759273786, No Iterations 35
time step continuity errors : sum local = 5.12321389699e-10, global = -8.49011730913e-21, cumulative = 6.66525637109e-19
DICPCG:  Solving for p, Initial residual = 0.0237812233537, Final residual = 0.000230765979396, No Iterations 35
time step continuity errors : sum local = 3.96604138567e-10, global = -1.73145694686e-20, cumulative = 6.49211067641e-19
DICPCG:  Solving for p, Initial residual = 0.000401830060983, Final residual = 3.24599654399e-06, No Iterations 84
time step continuity errors : sum local = 5.6057618188e-12, global = -7.25403432287e-21, cumulative = 6.41957033318e-19
DICPCG:  Solving for p, Initial residual = 8.32454966622e-05, Final residual = 9.62110153459e-13, No Iterations 183
time step continuity errors : sum local = 3.39543380322e-18, global = -1.08822639384e-20, cumulative = 6.3107476938e-19
ExecutionTime = 12.09 s  ClockTime = 40 s

volFieldValue error_velocity_norm write:
    max(region0) of error_velocity_mag = 2.93064214081e-05

volFieldValue L2_error_velocity_norm write:
    sqrt(sum(region0)) of error_velocity_mag_squ = 0.00265213402398

volFieldValue error_pressure_norm write:
    max(region0) of error_pres = 0.0038537588343

Courant Number mean: 0.0486944362096 max: 0.0600622965762
Time = 0.12375

PIMPLE: iteration 1
DILUPBiCGStab:  Solving for Ux, Initial residual = 0.00374924450119, Final residual = 3.70403189357e-09, No Iterations 4
DILUPBiCGStab:  Solving for Uy, Initial residual = 0.00374924448593, Final residual = 3.7053806483e-09, No Iterations 4
DICPCG:  Solving for p, Initial residual = 0.0312772146195, Final residual = 0.000294759304507, No Iterations 35
time step continuity errors : sum local = 5.04695380991e-10, global = -1.08646796884e-20, cumulative = 6.20210089691e-19
DICPCG:  Solving for p, Initial residual = 0.0237812330544, Final residual = 0.000230768436556, No Iterations 35
time step continuity errors : sum local = 3.90704672821e-10, global = 5.03773970505e-21, cumulative = 6.25247829396e-19
DICPCG:  Solving for p, Initial residual = 0.000401832934661, Final residual = 3.2455775816e-06, No Iterations 84
time step continuity errors : sum local = 5.52160340255e-12, global = 2.10322831273e-20, cumulative = 6.46280112524e-19
DICPCG:  Solving for p, Initial residual = 8.32461390954e-05, Final residual = 9.62114016589e-13, No Iterations 183
time step continuity errors : sum local = 3.39831453761e-18, global = 7.61058732413e-21, cumulative = 6.53890699848e-19
ExecutionTime = 12.47 s  ClockTime = 41 s

volFieldValue error_velocity_norm write:
    max(region0) of error_velocity_mag = 2.93064214081e-05

volFieldValue L2_error_velocity_norm write:
    sqrt(sum(region0)) of error_velocity_mag_squ = 0.00265213402398

volFieldValue error_pressure_norm write:
    max(region0) of error_pres = 0.0038537588343

Courant Number mean: 0.0483306657432 max: 0.0596136029559
Time = 0.1275

PIMPLE: iteration 1
DILUPBiCGStab:  Solving for Ux, Initial residual = 0.00374924454595, Final residual = 3.7044008492e-09, No Iterations 4
DILUPBiCGStab:  Solving for Uy, Initial residual = 0.00374924453079, Final residual = 3.70574237828e-09, No Iterations 4
DICPCG:  Solving for p, Initial residual = 0.0312772239947, Final residual = 0.0002947589697, No Iterations 35
time step continuity errors : sum local = 4.97182275815e-10, global = 5.92366616466e-21, cumulative = 6.59814366012e-19
DICPCG:  Solving for p, Initial residual = 0.0237812428678, Final residual = 0.000230770756451, No Iterations 35
time step continuity errors : sum local = 3.84892703119e-10, global = 1.31829918457e-20, cumulative = 6.72997357858e-19
DICPCG:  Solving for p, Initial residual = 0.000401835709995, Final residual = 3.24516544411e-06, No Iterations 84
time step continuity errors : sum local = 5.43871993013e-12, global = -9.51587793653e-21, cumulative = 6.63481479922e-19
DICPCG:  Solving for p, Initial residual = 8.32467778028e-05, Final residual = 9.6212014362e-13, No Iterations 183
time step continuity errors : sum local = 3.37207059341e-18, global = 7.10225239625e-21, cumulative = 6.70583732318e-19
ExecutionTime = 12.85 s  ClockTime = 41 s

volFieldValue error_velocity_norm write:
    max(region0) of error_velocity_mag = 2.93064214081e-05

volFieldValue L2_error_velocity_norm write:
    sqrt(sum(region0)) of error_velocity_mag_squ = 0.00265213402398

volFieldValue error_pressure_norm write:
    max(region0) of error_pres = 0.0038537588343

Courant Number mean: 0.0479696128047 max: 0.0591682612746
Time = 0.13125

PIMPLE: iteration 1
DILUPBiCGStab:  Solving for Ux, Initial residual = 0.00374924458984, Final residual = 3.70475948639e-09, No Iterations 4
DILUPBiCGStab:  Solving for Uy, Initial residual = 0.00374924457478, Final residual = 3.7060936962e-09, No Iterations 4
DICPCG:  Solving for p, Initial residual = 0.0312772336962, Final residual = 0.000294758876198, No Iterations 35
time step continuity errors : sum local = 4.89781416829e-10, global = 1.39605743592e-20, cumulative = 6.84544306677e-19
DICPCG:  Solving for p, Initial residual = 0.0237812527442, Final residual = 0.000230773221546, No Iterations 35
time step continuity errors : sum local = 3.79167447934e-10, global = -2.46465270014e-20, cumulative = 6.59897779676e-19
DICPCG:  Solving for p, Initial residual = 0.000401838543074, Final residual = 3.24475714054e-06, No Iterations 84
time step continuity errors : sum local = 5.35708664995e-12, global = 7.87921288456e-21, cumulative = 6.6777699256e-19
DICPCG:  Solving for p, Initial residual = 8.32474272373e-05, Final residual = 9.62126600787e-13, No Iterations 183
time step continuity errors : sum local = 3.31256553549e-18, global = 3.02025730016e-20, cumulative = 6.97979565562e-19
ExecutionTime = 13.22 s  ClockTime = 42 s

volFieldValue error_velocity_norm write:
    max(region0) of error_velocity_mag = 2.93064214081e-05

volFieldValue L2_error_velocity_norm write:
    sqrt(sum(region0)) of error_velocity_mag_squ = 0.00265213402398

volFieldValue error_pressure_norm write:
    max(region0) of error_pres = 0.0038537588343

Courant Number mean: 0.047611257093 max: 0.0587262464916
Time = 0.135

PIMPLE: iteration 1
DILUPBiCGStab:  Solving for Ux, Initial residual = 0.00374924463288, Final residual = 3.70510795338e-09, No Iterations 4
DILUPBiCGStab:  Solving for Uy, Initial residual = 0.00374924461792, Final residual = 3.70643489593e-09, No Iterations 4
DICPCG:  Solving for p, Initial residual = 0.0312772437339, Final residual = 0.000294758627567, No Iterations 35
time step continuity errors : sum local = 4.82490471944e-10, global = -1.56680950648e-21, cumulative = 6.96412756055e-19
DICPCG:  Solving for p, Initial residual = 0.0237812626932, Final residual = 0.000230775590107, No Iterations 35
time step continuity errors : sum local = 3.73527185258e-10, global = 8.38078177506e-21, cumulative = 7.0479353783e-19
DICPCG:  Solving for p, Initial residual = 0.000401841349795, Final residual = 3.24435540277e-06, No Iterations 84
time step continuity errors : sum local = 5.27668926548e-12, global = -3.81206608402e-21, cumulative = 7.00981471746e-19
DICPCG:  Solving for p, Initial residual = 8.32480744906e-05, Final residual = 9.62119195246e-13, No Iterations 183
time step continuity errors : sum local = 3.32879514605e-18, global = 2.76156334215e-20, cumulative = 7.28597105168e-19
ExecutionTime = 13.6 s  ClockTime = 42 s

volFieldValue error_velocity_norm write:
    max(region0) of error_velocity_mag = 2.93064214081e-05

volFieldValue L2_error_velocity_norm write:
    sqrt(sum(region0)) of error_velocity_mag_squ = 0.00265213402398

volFieldValue error_pressure_norm write:
    max(region0) of error_pres = 0.0038537588343

Courant Number mean: 0.0472555784588 max: 0.0582875337541
Time = 0.13875

PIMPLE: iteration 1
DILUPBiCGStab:  Solving for Ux, Initial residual = 0.00374924467509, Final residual = 3.70544636609e-09, No Iterations 4
DILUPBiCGStab:  Solving for Uy, Initial residual = 0.00374924466023, Final residual = 3.70676606653e-09, No Iterations 4
DICPCG:  Solving for p, Initial residual = 0.0312772539085, Final residual = 0.000294758468864, No Iterations 35
time step continuity errors : sum local = 4.75308209989e-10, global = 4.1209608748e-21, cumulative = 7.32718066043e-19
DICPCG:  Solving for p, Initial residual = 0.0237812726832, Final residual = 0.000230778017789, No Iterations 35
time step continuity errors : sum local = 3.67970928106e-10, global = 9.42470936443e-21, cumulative = 7.42142775407e-19
DICPCG:  Solving for p, Initial residual = 0.000401844204527, Final residual = 3.24396055089e-06, No Iterations 84
time step continuity errors : sum local = 5.19750943316e-12, global = -1.22847910356e-20, cumulative = 7.29857984371e-19
DICPCG:  Solving for p, Initial residual = 8.32487306832e-05, Final residual = 9.62142017656e-13, No Iterations 183
time step continuity errors : sum local = 3.29392516364e-18, global = 1.51102939065e-20, cumulative = 7.44968278278e-19
ExecutionTime = 13.97 s  ClockTime = 42 s

volFieldValue error_velocity_norm write:
    max(region0) of error_velocity_mag = 2.93064214081e-05

volFieldValue L2_error_velocity_norm write:
    sqrt(sum(region0)) of error_velocity_mag_squ = 0.00265213402398

volFieldValue error_pressure_norm write:
    max(region0) of error_pres = 0.0038537588343

Courant Number mean: 0.0469025569035 max: 0.0578520983947
Time = 0.1425

PIMPLE: iteration 1
DILUPBiCGStab:  Solving for Ux, Initial residual = 0.00374924471648, Final residual = 3.70577532396e-09, No Iterations 4
DILUPBiCGStab:  Solving for Uy, Initial residual = 0.00374924470172, Final residual = 3.7070877967e-09, No Iterations 4
DICPCG:  Solving for p, Initial residual = 0.0312772643498, Final residual = 0.000294758251133, No Iterations 35
time step continuity errors : sum local = 4.68232768754e-10, global = -1.29154909648e-20, cumulative = 7.32052787313e-19
DICPCG:  Solving for p, Initial residual = 0.0237812827333, Final residual = 0.000230780400543, No Iterations 35
time step continuity errors : sum local = 3.62497243412e-10, global = 4.34974268263e-21, cumulative = 7.36402529996e-19
DICPCG:  Solving for p, Initial residual = 0.000401847074254, Final residual = 3.24357168722e-06, No Iterations 84
time step continuity errors : sum local = 5.11952706079e-12, global = 1.59425563237e-20, cumulative = 7.52345086319e-19
DICPCG:  Solving for p, Initial residual = 8.32493890825e-05, Final residual = 9.62142424051e-13, No Iterations 183
time step continuity errors : sum local = 3.29729099327e-18, global = 3.80185687763e-20, cumulative = 7.90363655096e-19
ExecutionTime = 14.35 s  ClockTime = 43 s

volFieldValue error_velocity_norm write:
    max(region0) of error_velocity_mag = 2.93064214081e-05

volFieldValue L2_error_velocity_norm write:
    sqrt(sum(region0)) of error_velocity_mag_squ = 0.00265213402398

volFieldValue error_pressure_norm write:
    max(region0) of error_pres = 0.0038537588343

Courant Number mean: 0.0465521725777 max: 0.0574199159303
Time = 0.14625

PIMPLE: iteration 1
DILUPBiCGStab:  Solving for Ux, Initial residual = 0.00374924475708, Final residual = 3.70609509135e-09, No Iterations 4
DILUPBiCGStab:  Solving for Uy, Initial residual = 0.00374924474242, Final residual = 3.70740036904e-09, No Iterations 4
DICPCG:  Solving for p, Initial residual = 0.0312772752268, Final residual = 0.000294758015826, No Iterations 35
time step continuity errors : sum local = 4.61262630763e-10, global = 1.90944635217e-20, cumulative = 8.09458118617e-19
DICPCG:  Solving for p, Initial residual = 0.0237812928363, Final residual = 0.000230782810571, No Iterations 35
time step continuity errors : sum local = 3.57105028624e-10, global = 2.2127878724e-20, cumulative = 8.31585997341e-19
DICPCG:  Solving for p, Initial residual = 0.000401849962569, Final residual = 3.24320189445e-06, No Iterations 84
time step continuity errors : sum local = 5.04274426074e-12, global = -3.50934671744e-21, cumulative = 8.28076650624e-19
DICPCG:  Solving for p, Initial residual = 8.32500508119e-05, Final residual = 9.62134191677e-13, No Iterations 183
time step continuity errors : sum local = 3.27210138746e-18, global = -1.90718887169e-20, cumulative = 8.09004761907e-19
ExecutionTime = 14.72 s  ClockTime = 43 s

volFieldValue error_velocity_norm write:
    max(region0) of error_velocity_mag = 2.93064214081e-05

volFieldValue L2_error_velocity_norm write:
    sqrt(sum(region0)) of error_velocity_mag_squ = 0.00265213402398

volFieldValue error_pressure_norm write:
    max(region0) of error_pres = 0.0038537588343

Courant Number mean: 0.0462044057802 max: 0.0569909620606
Time = 0.15

PIMPLE: iteration 1
DILUPBiCGStab:  Solving for Ux, Initial residual = 0.0037492447969, Final residual = 3.70640599971e-09, No Iterations 4
DILUPBiCGStab:  Solving for Uy, Initial residual = 0.00374924478233, Final residual = 3.70770394456e-09, No Iterations 4
DICPCG:  Solving for p, Initial residual = 0.0312772863327, Final residual = 0.000294757771946, No Iterations 35
time step continuity errors : sum local = 4.54396237628e-10, global = 5.4168830155e-21, cumulative = 8.14421644923e-19
DICPCG:  Solving for p, Initial residual = 0.0237813029997, Final residual = 0.000230785203915, No Iterations 35
time step continuity errors : sum local = 3.51792995288e-10, global = 2.20505018647e-20, cumulative = 8.36472146787e-19
DICPCG:  Solving for p, Initial residual = 0.000401852846664, Final residual = 3.24281236133e-06, No Iterations 84
time step continuity errors : sum local = 4.96708272999e-12, global = 2.82234922126e-20, cumulative = 8.64695639e-19
DICPCG:  Solving for p, Initial residual = 8.32507435556e-05, Final residual = 9.62152727374e-13, No Iterations 183
time step continuity errors : sum local = 3.21486471087e-18, global = 7.84045835321e-21, cumulative = 8.72536097353e-19
ExecutionTime = 15.09 s  ClockTime = 43 s

volFieldValue error_velocity_norm write:
    max(region0) of error_velocity_mag = 2.93064214081e-05

volFieldValue L2_error_velocity_norm write:
    sqrt(sum(region0)) of error_velocity_mag_squ = 0.00265213402398

volFieldValue error_pressure_norm write:
    max(region0) of error_pres = 0.0038537588343

Courant Number mean: 0.0458592369572 max: 0.0565652126671
Time = 0.15375

PIMPLE: iteration 1
DILUPBiCGStab:  Solving for Ux, Initial residual = 0.00374924483595, Final residual = 3.70670803725e-09, No Iterations 4
DILUPBiCGStab:  Solving for Uy, Initial residual = 0.00374924482148, Final residual = 3.7079986436e-09, No Iterations 4
DICPCG:  Solving for p, Initial residual = 0.0312772976612, Final residual = 0.000294757516806, No Iterations 35
time step continuity errors : sum local = 4.47632046145e-10, global = 1.02702282229e-20, cumulative = 8.82806325576e-19
DICPCG:  Solving for p, Initial residual = 0.0237813132134, Final residual = 0.000230787615682, No Iterations 35
time step continuity errors : sum local = 3.46560009855e-10, global = 1.66201656253e-20, cumulative = 8.99426491201e-19
DICPCG:  Solving for p, Initial residual = 0.000401855748379, Final residual = 3.24244131487e-06, No Iterations 84
time step continuity errors : sum local = 4.8925842404e-12, global = 3.01084884234e-21, cumulative = 9.02437340044e-19
DICPCG:  Solving for p, Initial residual = 8.32514527659e-05, Final residual = 9.62158271073e-13, No Iterations 183
time step continuity errors : sum local = 3.18519420893e-18, global = 9.92660532853e-21, cumulative = 9.12363945372e-19
ExecutionTime = 15.48 s  ClockTime = 44 s

volFieldValue error_velocity_norm write:
    max(region0) of error_velocity_mag = 2.93064214081e-05

volFieldValue L2_error_velocity_norm write:
    sqrt(sum(region0)) of error_velocity_mag_squ = 0.00265213402398

volFieldValue error_pressure_norm write:
    max(region0) of error_pres = 0.0038537588343

Courant Number mean: 0.0455166467009 max: 0.056142643811
Time = 0.1575

PIMPLE: iteration 1
DILUPBiCGStab:  Solving for Ux, Initial residual = 0.00374924487426, Final residual = 3.70700170576e-09, No Iterations 4
DILUPBiCGStab:  Solving for Uy, Initial residual = 0.00374924485988, Final residual = 3.70828461931e-09, No Iterations 4
DICPCG:  Solving for p, Initial residual = 0.0312773093524, Final residual = 0.000294757282647, No Iterations 35
time step continuity errors : sum local = 4.40968577929e-10, global = 7.15707347915e-21, cumulative = 9.19521018851e-19
DICPCG:  Solving for p, Initial residual = 0.0237813234805, Final residual = 0.000230790057309, No Iterations 35
time step continuity errors : sum local = 3.41404907451e-10, global = 2.48779197812e-20, cumulative = 9.44398938632e-19
DICPCG:  Solving for p, Initial residual = 0.000401858709862, Final residual = 3.24207478121e-06, No Iterations 84
time step continuity errors : sum local = 4.81920974346e-12, global = 4.2722905654e-21, cumulative = 9.48671229198e-19
DICPCG:  Solving for p, Initial residual = 8.32521661813e-05, Final residual = 9.62255444618e-13, No Iterations 183
time step continuity errors : sum local = 3.14973107356e-18, global = 3.85951236647e-22, cumulative = 9.49057180435e-19
ExecutionTime = 15.84 s  ClockTime = 44 s

volFieldValue error_velocity_norm write:
    max(region0) of error_velocity_mag = 2.93064214081e-05

volFieldValue L2_error_velocity_norm write:
    sqrt(sum(region0)) of error_velocity_mag_squ = 0.00265213402398

volFieldValue error_pressure_norm write:
    max(region0) of error_pres = 0.0038537588343

Courant Number mean: 0.0451766157484 max: 0.0557232317328
Time = 0.16125

PIMPLE: iteration 1
DILUPBiCGStab:  Solving for Ux, Initial residual = 0.00374924491184, Final residual = 3.70728708538e-09, No Iterations 4
DILUPBiCGStab:  Solving for Uy, Initial residual = 0.00374924489755, Final residual = 3.70856275452e-09, No Iterations 4
DICPCG:  Solving for p, Initial residual = 0.0312773212231, Final residual = 0.000294757083731, No Iterations 35
time step continuity errors : sum local = 4.34404357189e-10, global = 3.27991068354e-20, cumulative = 9.8185628727e-19
DICPCG:  Solving for p, Initial residual = 0.0237813338044, Final residual = 0.000230792533393, No Iterations 35
time step continuity errors : sum local = 3.36326538619e-10, global = 1.17774646664e-20, cumulative = 9.93633751936e-19
DICPCG:  Solving for p, Initial residual = 0.000401861673742, Final residual = 3.24171523156e-06, No Iterations 84
time step continuity errors : sum local = 4.74694576681e-12, global = 1.86536390665e-20, cumulative = 1.012287391e-18
DICPCG:  Solving for p, Initial residual = 8.32528905402e-05, Final residual = 9.62164107084e-13, No Iterations 183
time step continuity errors : sum local = 3.16525951201e-18, global = 2.35921548158e-20, cumulative = 1.03587954582e-18
ExecutionTime = 16.22 s  ClockTime = 45 s

volFieldValue error_velocity_norm write:
    max(region0) of error_velocity_mag = 2.93064214081e-05

volFieldValue L2_error_velocity_norm write:
    sqrt(sum(region0)) of error_velocity_mag_squ = 0.00265213402398

volFieldValue error_pressure_norm write:
    max(region0) of error_pres = 0.0038537588343

Courant Number mean: 0.0448391249807 max: 0.0553069528501
Time = 0.165

PIMPLE: iteration 1
DILUPBiCGStab:  Solving for Ux, Initial residual = 0.00374924494869, Final residual = 3.70756441591e-09, No Iterations 4
DILUPBiCGStab:  Solving for Uy, Initial residual = 0.0037492449345, Final residual = 3.70883306483e-09, No Iterations 4
DICPCG:  Solving for p, Initial residual = 0.031277333278, Final residual = 0.000294756829558, No Iterations 35
time step continuity errors : sum local = 4.27937772977e-10, global = -1.82015165881e-20, cumulative = 1.01767802923e-18
DICPCG:  Solving for p, Initial residual = 0.0237813441865, Final residual = 0.000230795020995, No Iterations 35
time step continuity errors : sum local = 3.31323725261e-10, global = 2.04980004535e-20, cumulative = 1.03817602968e-18
DICPCG:  Solving for p, Initial residual = 0.000401864637633, Final residual = 3.24136033449e-06, No Iterations 84
time step continuity errors : sum local = 4.67577205501e-12, global = 1.46512688327e-20, cumulative = 1.05282729852e-18
DICPCG:  Solving for p, Initial residual = 8.32536238583e-05, Final residual = 9.62253906325e-13, No Iterations 183
time step continuity errors : sum local = 3.17794746364e-18, global = 1.76275096097e-21, cumulative = 1.05459004948e-18
ExecutionTime = 16.59 s  ClockTime = 45 s

volFieldValue error_velocity_norm write:
    max(region0) of error_velocity_mag = 2.93064214081e-05

volFieldValue L2_error_velocity_norm write:
    sqrt(sum(region0)) of error_velocity_mag_squ = 0.00265213402398

volFieldValue error_pressure_norm write:
    max(region0) of error_pres = 0.0038537588343

Courant Number mean: 0.0445041554217 max: 0.0548937837569
Time = 0.16875

PIMPLE: iteration 1
DILUPBiCGStab:  Solving for Ux, Initial residual = 0.00374924498485, Final residual = 3.70783397856e-09, No Iterations 4
DILUPBiCGStab:  Solving for Uy, Initial residual = 0.00374924497076, Final residual = 3.70909553151e-09, No Iterations 4
DICPCG:  Solving for p, Initial residual = 0.0312773456146, Final residual = 0.00029475670697, No Iterations 35
time step continuity errors : sum local = 4.21567638757e-10, global = -1.62076186874e-20, cumulative = 1.03838243079e-18
DICPCG:  Solving for p, Initial residual = 0.0237813547571, Final residual = 0.000230797559445, No Iterations 35
time step continuity errors : sum local = 3.26395399821e-10, global = -1.24412911437e-20, cumulative = 1.02594113965e-18
DICPCG:  Solving for p, Initial residual = 0.000401867593675, Final residual = 3.24098134684e-06, No Iterations 84
time step continuity errors : sum local = 4.60563112336e-12, global = 4.74316273293e-21, cumulative = 1.03068430238e-18
DICPCG:  Solving for p, Initial residual = 8.32543825477e-05, Final residual = 9.62177643677e-13, No Iterations 183
time step continuity errors : sum local = 3.14571357419e-18, global = -2.04174163827e-21, cumulative = 1.02864256074e-18
ExecutionTime = 16.97 s  ClockTime = 45 s

volFieldValue error_velocity_norm write:
    max(region0) of error_velocity_mag = 2.93064214081e-05

volFieldValue L2_error_velocity_norm write:
    sqrt(sum(region0)) of error_velocity_mag_squ = 0.00265213402398

volFieldValue error_pressure_norm write:
    max(region0) of error_pres = 0.0038537588343

Courant Number mean: 0.044171688237 max: 0.0544837012221
Time = 0.1725

PIMPLE: iteration 1
DILUPBiCGStab:  Solving for Ux, Initial residual = 0.00374924502032, Final residual = 3.70809614344e-09, No Iterations 4
DILUPBiCGStab:  Solving for Uy, Initial residual = 0.00374924500632, Final residual = 3.70935089084e-09, No Iterations 4
DICPCG:  Solving for p, Initial residual = 0.0312773581089, Final residual = 0.000294756606822, No Iterations 35
time step continuity errors : sum local = 4.15292359681e-10, global = 1.38817643332e-20, cumulative = 1.04252432507e-18
DICPCG:  Solving for p, Initial residual = 0.0237813658958, Final residual = 0.000230800074289, No Iterations 35
time step continuity errors : sum local = 3.21540348117e-10, global = 3.06731383795e-21, cumulative = 1.04559163891e-18
DICPCG:  Solving for p, Initial residual = 0.000401870529987, Final residual = 3.24066438182e-06, No Iterations 84
time step continuity errors : sum local = 4.53662921986e-12, global = -8.65404184105e-21, cumulative = 1.03693759707e-18
DICPCG:  Solving for p, Initial residual = 8.32551119514e-05, Final residual = 9.62192357317e-13, No Iterations 183
time step continuity errors : sum local = 3.05719698393e-18, global = -2.5591476834e-20, cumulative = 1.01134612024e-18
ExecutionTime = 17.41 s  ClockTime = 46 s

volFieldValue error_velocity_norm write:
    max(region0) of error_velocity_mag = 2.93064214081e-05

volFieldValue L2_error_velocity_norm write:
    sqrt(sum(region0)) of error_velocity_mag_squ = 0.00265213402398

volFieldValue error_pressure_norm write:
    max(region0) of error_pres = 0.0038537588343

Courant Number mean: 0.0438417047329 max: 0.0540766821877
Time = 0.17625

PIMPLE: iteration 1
DILUPBiCGStab:  Solving for Ux, Initial residual = 0.00374924505512, Final residual = 3.70835142134e-09, No Iterations 4
DILUPBiCGStab:  Solving for Uy, Initial residual = 0.00374924504121, Final residual = 3.70960068615e-09, No Iterations 4
DICPCG:  Solving for p, Initial residual = 0.0312773707689, Final residual = 0.000294756572142, No Iterations 35
time step continuity errors : sum local = 4.09110584242e-10, global = -3.18388827821e-21, cumulative = 1.00816223196e-18
DICPCG:  Solving for p, Initial residual = 0.0237813774384, Final residual = 0.000230802592867, No Iterations 35
[...]
time step continuity errors : sum local = 2.68928942033e-18, global = -1.3061181081e-20, cumulative = 1.36112177577e-18
ExecutionTime = 25.69 s  ClockTime = 54 s

volFieldValue error_velocity_norm write:
    max(region0) of error_velocity_mag = 2.93064214081e-05

volFieldValue L2_error_velocity_norm write:
    sqrt(sum(region0)) of error_velocity_mag_squ = 0.00265213402398

volFieldValue error_pressure_norm write:
    max(region0) of error_pres = 0.0038537588343

Courant Number mean: 0.0371743152431 max: 0.0458527724784
Time = 0.25875

PIMPLE: iteration 1
DILUPBiCGStab:  Solving for Ux, Initial residual = 0.00374924567604, Final residual = 3.71251280221e-09, No Iterations 4
DILUPBiCGStab:  Solving for Uy, Initial residual = 0.00374924566403, Final residual = 3.71361239377e-09, No Iterations 4
DICPCG:  Solving for p, Initial residual = 0.0312777070088, Final residual = 0.00029475608216, No Iterations 35
time step continuity errors : sum local = 2.94137680708e-10, global = 5.20219322792e-21, cumulative = 1.366323969e-18
DICPCG:  Solving for p, Initial residual = 0.0237816644709, Final residual = 0.00023086088266, No Iterations 35
time step continuity errors : sum local = 2.27795090612e-10, global = 3.9334171819e-21, cumulative = 1.37025738618e-18
DICPCG:  Solving for p, Initial residual = 0.00040194899123, Final residual = 3.23394205102e-06, No Iterations 84
time step continuity errors : sum local = 3.20643691658e-12, global = 1.24864973169e-20, cumulative = 1.3827438835e-18
DICPCG:  Solving for p, Initial residual = 8.32744557773e-05, Final residual = 9.62628846981e-13, No Iterations 183
time step continuity errors : sum local = 2.65588274021e-18, global = -5.51988415137e-21, cumulative = 1.37722399935e-18
ExecutionTime = 26.07 s  ClockTime = 54 s

volFieldValue error_velocity_norm write:
    max(region0) of error_velocity_mag = 2.93064214081e-05

volFieldValue L2_error_velocity_norm write:
    sqrt(sum(region0)) of error_velocity_mag_squ = 0.00265213402398

volFieldValue error_pressure_norm write:
    max(region0) of error_pres = 0.0038537588343

Courant Number mean: 0.0368966053257 max: 0.0455102304134
Time = 0.2625

PIMPLE: iteration 1
DILUPBiCGStab:  Solving for Ux, Initial residual = 0.0037492456987, Final residual = 3.71264953279e-09, No Iterations 4
DILUPBiCGStab:  Solving for Uy, Initial residual = 0.00374924568676, Final residual = 3.71374186577e-09, No Iterations 4
DICPCG:  Solving for p, Initial residual = 0.0312777247739, Final residual = 0.000294756019409, No Iterations 35
time step continuity errors : sum local = 2.89759340327e-10, global = 7.13213527836e-21, cumulative = 1.38435613463e-18
DICPCG:  Solving for p, Initial residual = 0.0237816795114, Final residual = 0.000230863813173, No Iterations 35
time step continuity errors : sum local = 2.24407093615e-10, global = -3.95917096769e-21, cumulative = 1.38039696366e-18
DICPCG:  Solving for p, Initial residual = 0.000401953128758, Final residual = 3.23369747838e-06, No Iterations 84
time step continuity errors : sum local = 3.15846740988e-12, global = -1.25379843613e-20, cumulative = 1.3678589793e-18
DICPCG:  Solving for p, Initial residual = 8.32753855643e-05, Final residual = 9.62297907656e-13, No Iterations 183
time step continuity errors : sum local = 2.57948791367e-18, global = 4.22807255253e-21, cumulative = 1.37208705185e-18
ExecutionTime = 26.45 s  ClockTime = 55 s

volFieldValue error_velocity_norm write:
    max(region0) of error_velocity_mag = 2.93064214081e-05

volFieldValue L2_error_velocity_norm write:
    sqrt(sum(region0)) of error_velocity_mag_squ = 0.00265213402398

volFieldValue error_pressure_norm write:
    max(region0) of error_pres = 0.0038537588343

Courant Number mean: 0.0366209700303 max: 0.0451702472957
Time = 0.26625

PIMPLE: iteration 1
DILUPBiCGStab:  Solving for Ux, Initial residual = 0.00374924572094, Final residual = 3.71278273609e-09, No Iterations 4
DILUPBiCGStab:  Solving for Uy, Initial residual = 0.00374924570909, Final residual = 3.7138676798e-09, No Iterations 4
DICPCG:  Solving for p, Initial residual = 0.0312777428663, Final residual = 0.00029475597176, No Iterations 35
time step continuity errors : sum local = 2.8544619084e-10, global = -4.26356410542e-21, cumulative = 1.36782348774e-18
DICPCG:  Solving for p, Initial residual = 0.0237816946549, Final residual = 0.000230866886765, No Iterations 35
time step continuity errors : sum local = 2.21069622263e-10, global = 1.90272210353e-21, cumulative = 1.36972620985e-18
DICPCG:  Solving for p, Initial residual = 0.000401957297519, Final residual = 3.23345786195e-06, No Iterations 84
time step continuity errors : sum local = 3.11122030619e-12, global = 3.60521071462e-20, cumulative = 1.40577831699e-18
DICPCG:  Solving for p, Initial residual = 8.32763423429e-05, Final residual = 9.62303318179e-13, No Iterations 183
time step continuity errors : sum local = 2.59951555927e-18, global = -4.66343945483e-21, cumulative = 1.40111487754e-18
ExecutionTime = 26.82 s  ClockTime = 55 s

volFieldValue error_velocity_norm write:
    max(region0) of error_velocity_mag = 2.93064214081e-05

volFieldValue L2_error_velocity_norm write:
    sqrt(sum(region0)) of error_velocity_mag_squ = 0.00265213402398

volFieldValue error_pressure_norm write:
    max(region0) of error_pres = 0.0038537588343

Courant Number mean: 0.0363473938583 max: 0.0448328040089
Time = 0.27

PIMPLE: iteration 1
DILUPBiCGStab:  Solving for Ux, Initial residual = 0.00374924574279, Final residual = 3.7129123596e-09, No Iterations 4
DILUPBiCGStab:  Solving for Uy, Initial residual = 0.00374924573101, Final residual = 3.71398985044e-09, No Iterations 4
DICPCG:  Solving for p, Initial residual = 0.0312777616234, Final residual = 0.000294755903971, No Iterations 35
time step continuity errors : sum local = 2.81197224271e-10, global = -1.97669518574e-21, cumulative = 1.39913818235e-18
DICPCG:  Solving for p, Initial residual = 0.0237817098961, Final residual = 0.000230870117602, No Iterations 35
time step continuity errors : sum local = 2.17781931443e-10, global = -1.14643118472e-20, cumulative = 1.38767387051e-18
DICPCG:  Solving for p, Initial residual = 0.000401961503057, Final residual = 3.23322039041e-06, No Iterations 84
time step continuity errors : sum local = 3.06468193703e-12, global = -2.30088656594e-22, cumulative = 1.38744378185e-18
DICPCG:  Solving for p, Initial residual = 8.32773062771e-05, Final residual = 9.59466640051e-13, No Iterations 180
time step continuity errors : sum local = 2.61149367955e-18, global = -1.00729528314e-20, cumulative = 1.37737082902e-18
ExecutionTime = 27.21 s  ClockTime = 56 s

volFieldValue error_velocity_norm write:
    max(region0) of error_velocity_mag = 2.93064214081e-05

volFieldValue L2_error_velocity_norm write:
    sqrt(sum(region0)) of error_velocity_mag_squ = 0.00265213402398

volFieldValue error_pressure_norm write:
    max(region0) of error_pres = 0.0038537588343

Courant Number mean: 0.0360758614275 max: 0.0444978815795
Time = 0.27375

PIMPLE: iteration 1
DILUPBiCGStab:  Solving for Ux, Initial residual = 0.00374924576424, Final residual = 3.71303847572e-09, No Iterations 4
DILUPBiCGStab:  Solving for Uy, Initial residual = 0.00374924575254, Final residual = 3.71410841401e-09, No Iterations 4
DICPCG:  Solving for p, Initial residual = 0.0312777806331, Final residual = 0.000294755844968, No Iterations 35
time step continuity errors : sum local = 2.77011516648e-10, global = 4.97540952478e-21, cumulative = 1.38234623854e-18
DICPCG:  Solving for p, Initial residual = 0.023781725628, Final residual = 0.000230873428905, No Iterations 35
time step continuity errors : sum local = 2.14543209149e-10, global = -1.19422525163e-20, cumulative = 1.37040398603e-18
DICPCG:  Solving for p, Initial residual = 0.000401965725416, Final residual = 3.23298581734e-06, No Iterations 84
time step continuity errors : sum local = 3.01884233878e-12, global = 1.19295704899e-20, cumulative = 1.38233355652e-18
DICPCG:  Solving for p, Initial residual = 8.32782833964e-05, Final residual = 9.62317160618e-13, No Iterations 183
time step continuity errors : sum local = 2.59713804185e-18, global = 6.77000016666e-21, cumulative = 1.38910355668e-18
ExecutionTime = 27.59 s  ClockTime = 56 s

volFieldValue error_velocity_norm write:
    max(region0) of error_velocity_mag = 2.93064214081e-05

volFieldValue L2_error_velocity_norm write:
    sqrt(sum(region0)) of error_velocity_mag_squ = 0.00265213402398

volFieldValue error_pressure_norm write:
    max(region0) of error_pres = 0.0038537588343

Courant Number mean: 0.0358063574701 max: 0.0441654611755
Time = 0.2775

PIMPLE: iteration 1
DILUPBiCGStab:  Solving for Ux, Initial residual = 0.00374924578531, Final residual = 3.71316104404e-09, No Iterations 4
DILUPBiCGStab:  Solving for Uy, Initial residual = 0.00374924577369, Final residual = 3.71422358407e-09, No Iterations 4
DICPCG:  Solving for p, Initial residual = 0.0312777998422, Final residual = 0.000294755769524, No Iterations 35
time step continuity errors : sum local = 2.72888098883e-10, global = 8.63210295804e-21, cumulative = 1.39773565964e-18
DICPCG:  Solving for p, Initial residual = 0.0237817415336, Final residual = 0.000230876731841, No Iterations 35
time step continuity errors : sum local = 2.11352642342e-10, global = -7.67569596822e-21, cumulative = 1.39005996367e-18
DICPCG:  Solving for p, Initial residual = 0.000401969983312, Final residual = 3.23275359699e-06, No Iterations 84
time step continuity errors : sum local = 2.97369058385e-12, global = -5.05062075371e-21, cumulative = 1.38500934292e-18
DICPCG:  Solving for p, Initial residual = 8.32792662131e-05, Final residual = 9.6232283191e-13, No Iterations 183
time step continuity errors : sum local = 2.54406277725e-18, global = 7.24692907389e-21, cumulative = 1.39225627199e-18
ExecutionTime = 27.95 s  ClockTime = 56 s

volFieldValue error_velocity_norm write:
    max(region0) of error_velocity_mag = 2.93064214081e-05

volFieldValue L2_error_velocity_norm write:
    sqrt(sum(region0)) of error_velocity_mag_squ = 0.00265213402398

volFieldValue error_pressure_norm write:
    max(region0) of error_pres = 0.0038537588343

Courant Number mean: 0.0355388668326 max: 0.043835524106
Time = 0.28125

PIMPLE: iteration 1
DILUPBiCGStab:  Solving for Ux, Initial residual = 0.003749245806, Final residual = 3.71328016363e-09, No Iterations 4
DILUPBiCGStab:  Solving for Uy, Initial residual = 0.00374924579446, Final residual = 3.71433543166e-09, No Iterations 4
DICPCG:  Solving for p, Initial residual = 0.0312778199464, Final residual = 0.000294755672155, No Iterations 35
time step continuity errors : sum local = 2.68826043506e-10, global = 1.88158210268e-20, cumulative = 1.41107209302e-18
DICPCG:  Solving for p, Initial residual = 0.0237817575492, Final residual = 0.00023088001007, No Iterations 35
time step continuity errors : sum local = 2.08209503478e-10, global = 2.06686612225e-20, cumulative = 1.43174075424e-18
DICPCG:  Solving for p, Initial residual = 0.000401974251333, Final residual = 3.23252431097e-06, No Iterations 84
time step continuity errors : sum local = 2.92921676945e-12, global = -1.0134134498e-21, cumulative = 1.43072734079e-18
DICPCG:  Solving for p, Initial residual = 8.32802636019e-05, Final residual = 9.62304192479e-13, No Iterations 183
time step continuity errors : sum local = 2.5664943666e-18, global = 9.404474017e-21, cumulative = 1.44013181481e-18
ExecutionTime = 28.33 s  ClockTime = 57 s

volFieldValue error_velocity_norm write:
    max(region0) of error_velocity_mag = 2.93064214081e-05

volFieldValue L2_error_velocity_norm write:
    sqrt(sum(region0)) of error_velocity_mag_squ = 0.00265213402398

volFieldValue error_pressure_norm write:
    max(region0) of error_pres = 0.0038537588343

Courant Number mean: 0.0352733744747 max: 0.0435080518192
Time = 0.285

PIMPLE: iteration 1
DILUPBiCGStab:  Solving for Ux, Initial residual = 0.00374924582632, Final residual = 3.71339600078e-09, No Iterations 4
DILUPBiCGStab:  Solving for Uy, Initial residual = 0.00374924581486, Final residual = 3.71444408938e-09, No Iterations 4
DICPCG:  Solving for p, Initial residual = 0.0312778410558, Final residual = 0.000294755558042, No Iterations 35
time step continuity errors : sum local = 2.64824438178e-10, global = -4.44390739276e-21, cumulative = 1.43568790742e-18
DICPCG:  Solving for p, Initial residual = 0.0237817736695, Final residual = 0.00023088331567, No Iterations 35
time step continuity errors : sum local = 2.05113130508e-10, global = 9.62358481736e-21, cumulative = 1.44531149223e-18
DICPCG:  Solving for p, Initial residual = 0.000401978528394, Final residual = 3.23230273043e-06, No Iterations 84
time step continuity errors : sum local = 2.88541487282e-12, global = -4.17511891957e-21, cumulative = 1.44113637331e-18
DICPCG:  Solving for p, Initial residual = 8.32812695259e-05, Final residual = 9.6232348527e-13, No Iterations 183
time step continuity errors : sum local = 2.54878495071e-18, global = 1.99117859452e-21, cumulative = 1.44312755191e-18
ExecutionTime = 28.71 s  ClockTime = 57 s

volFieldValue error_velocity_norm write:
    max(region0) of error_velocity_mag = 2.93064214081e-05

volFieldValue L2_error_velocity_norm write:
    sqrt(sum(region0)) of error_velocity_mag_squ = 0.00265213402398

volFieldValue error_pressure_norm write:
    max(region0) of error_pres = 0.0038537588343

Courant Number mean: 0.0350098654684 max: 0.0431830259023
Time = 0.28875

PIMPLE: iteration 1
DILUPBiCGStab:  Solving for Ux, Initial residual = 0.00374924584628, Final residual = 3.71350870195e-09, No Iterations 4
DILUPBiCGStab:  Solving for Uy, Initial residual = 0.00374924583489, Final residual = 3.71454960514e-09, No Iterations 4
DICPCG:  Solving for p, Initial residual = 0.0312778629286, Final residual = 0.000294755479038, No Iterations 35
time step continuity errors : sum local = 2.60882432433e-10, global = -2.54163708861e-20, cumulative = 1.41771118102e-18
DICPCG:  Solving for p, Initial residual = 0.0237817899044, Final residual = 0.000230886610288, No Iterations 35
time step continuity errors : sum local = 2.02062797003e-10, global = -1.74235050675e-20, cumulative = 1.40028767595e-18
DICPCG:  Solving for p, Initial residual = 0.000401982816495, Final residual = 3.23208836315e-06, No Iterations 84
time step continuity errors : sum local = 2.84227435953e-12, global = -1.00994366241e-20, cumulative = 1.39018823933e-18
DICPCG:  Solving for p, Initial residual = 8.32822877705e-05, Final residual = 9.62343341271e-13, No Iterations 183
time step continuity errors : sum local = 2.49022437306e-18, global = 6.14712228643e-21, cumulative = 1.39633536162e-18
ExecutionTime = 29.08 s  ClockTime = 57 s

volFieldValue error_velocity_norm write:
    max(region0) of error_velocity_mag = 2.93064214081e-05

volFieldValue L2_error_velocity_norm write:
    sqrt(sum(region0)) of error_velocity_mag_squ = 0.00265213402398

volFieldValue error_pressure_norm write:
    max(region0) of error_pres = 0.0038537588343

Courant Number mean: 0.0347483249971 max: 0.0428604280799
Time = 0.2925

PIMPLE: iteration 1
DILUPBiCGStab:  Solving for Ux, Initial residual = 0.00374924586588, Final residual = 3.71361835669e-09, No Iterations 4
DILUPBiCGStab:  Solving for Uy, Initial residual = 0.00374924585457, Final residual = 3.71465201266e-09, No Iterations 4
DICPCG:  Solving for p, Initial residual = 0.0312778852407, Final residual = 0.000294755371123, No Iterations 35
time step continuity errors : sum local = 2.56999079291e-10, global = -6.14131735866e-21, cumulative = 1.39019404426e-18
DICPCG:  Solving for p, Initial residual = 0.0237818062382, Final residual = 0.000230889889415, No Iterations 35
time step continuity errors : sum local = 1.99057812098e-10, global = -3.42281618348e-21, cumulative = 1.38677122808e-18
DICPCG:  Solving for p, Initial residual = 0.000401987096225, Final residual = 3.23187544211e-06, No Iterations 84
time step continuity errors : sum local = 2.79978001631e-12, global = 1.30637400701e-20, cumulative = 1.39983496815e-18
DICPCG:  Solving for p, Initial residual = 8.32833088822e-05, Final residual = 9.62358126764e-13, No Iterations 183
time step continuity errors : sum local = 2.51363034446e-18, global = 1.03444780827e-20, cumulative = 1.41017944623e-18
ExecutionTime = 29.47 s  ClockTime = 58 s

volFieldValue error_velocity_norm write:
    max(region0) of error_velocity_mag = 2.93064214081e-05

volFieldValue L2_error_velocity_norm write:
    sqrt(sum(region0)) of error_velocity_mag_squ = 0.00265213402398

volFieldValue error_pressure_norm write:
    max(region0) of error_pres = 0.0038537588343

Courant Number mean: 0.0344887383551 max: 0.042540240213
Time = 0.29625

PIMPLE: iteration 1
DILUPBiCGStab:  Solving for Ux, Initial residual = 0.00374924588513, Final residual = 3.71372516857e-09, No Iterations 4
DILUPBiCGStab:  Solving for Uy, Initial residual = 0.00374924587391, Final residual = 3.71475163154e-09, No Iterations 4
DICPCG:  Solving for p, Initial residual = 0.0312779082613, Final residual = 0.000294755296149, No Iterations 35
time step continuity errors : sum local = 2.5317356277e-10, global = 1.45566153511e-20, cumulative = 1.42473606158e-18
DICPCG:  Solving for p, Initial residual = 0.0237818231186, Final residual = 0.000230893150823, No Iterations 35
time step continuity errors : sum local = 1.96097502612e-10, global = 1.82346043531e-20, cumulative = 1.44297066593e-18
DICPCG:  Solving for p, Initial residual = 0.000401991407993, Final residual = 3.23166835312e-06, No Iterations 84
time step continuity errors : sum local = 2.75792600543e-12, global = -7.49525393091e-21, cumulative = 1.435475412e-18
DICPCG:  Solving for p, Initial residual = 8.32843470124e-05, Final residual = 9.6235557106e-13, No Iterations 183
time step continuity errors : sum local = 2.50690840376e-18, global = -1.04367162338e-21, cumulative = 1.43443174038e-18
ExecutionTime = 29.84 s  ClockTime = 58 s

volFieldValue error_velocity_norm write:
    max(region0) of error_velocity_mag = 2.93064214081e-05

volFieldValue L2_error_velocity_norm write:
    sqrt(sum(region0)) of error_velocity_mag_squ = 0.00265213402398

volFieldValue error_pressure_norm write:
    max(region0) of error_pres = 0.0038537588343

Courant Number mean: 0.0342310909465 max: 0.0422224442984
Time = 0.3

PIMPLE: iteration 1
DILUPBiCGStab:  Solving for Ux, Initial residual = 0.00374924590405, Final residual = 3.71382898184e-09, No Iterations 4
DILUPBiCGStab:  Solving for Uy, Initial residual = 0.0037492458929, Final residual = 3.71484834869e-09, No Iterations 4
DICPCG:  Solving for p, Initial residual = 0.031277931728, Final residual = 0.000294755172121, No Iterations 35
time step continuity errors : sum local = 2.49404948822e-10, global = 4.76255912496e-21, cumulative = 1.4391942995e-18
DICPCG:  Solving for p, Initial residual = 0.0237818401529, Final residual = 0.000230896427044, No Iterations 35
time step continuity errors : sum local = 1.93181228618e-10, global = 1.52040326981e-21, cumulative = 1.44071470277e-18
DICPCG:  Solving for p, Initial residual = 0.000401995719282, Final residual = 3.23146149307e-06, No Iterations 84
time step continuity errors : sum local = 2.71669775471e-12, global = 1.97214653576e-20, cumulative = 1.46043616813e-18
DICPCG:  Solving for p, Initial residual = 8.32853948862e-05, Final residual = 9.62357220019e-13, No Iterations 183
time step continuity errors : sum local = 2.44147717525e-18, global = 1.55252081701e-21, cumulative = 1.46198868895e-18
ExecutionTime = 30.22 s  ClockTime = 59 s

volFieldValue error_velocity_norm write:
    max(region0) of error_velocity_mag = 2.93064214081e-05

volFieldValue L2_error_velocity_norm write:
    sqrt(sum(region0)) of error_velocity_mag_squ = 0.00265213402398

volFieldValue error_pressure_norm write:
    max(region0) of error_pres = 0.0038537588343

End

