/*---------------------------------------------------------------------------*\
| =========                 |                                                 |
| \\      /  F ield         | OpenFOAM: The Open Source CFD Toolbox           |
|  \\    /   O peration     | Version:  2406                                  |
|   \\  /    A nd           | Website:  www.openfoam.com                      |
|    \\/     M anipulation  |                                                 |
\*---------------------------------------------------------------------------*/
Build  : _630d60de3b-20240620 OPENFOAM=2406 version=v2406
Arch   : "LSB;label=32;scalar=64"
Exec   : RK4Foam
Date   : Sep 06 2024
Time   : 11:30:45
Host   : hakan-X556UQK
PID    : 33441
I/O    : uncollated
Case   : /home/hakan/courses/testSimulation/tgv2dTests/tgv2d_temporal/RK4Foam/RK4Foam_nu0.0000001/TGV_temporal
nProcs : 1
trapFpe: Floating point exception trapping enabled (FOAM_SIGFPE).
fileModificationChecking : Monitoring run-time modified files using timeStampMaster (fileModificationSkew 5, maxFileModificationPolls 20)
allowSystemOperations : Allowing user-supplied system call operations

// * * * * * * * * * * * * * * * * * * * * * * * * * * * * * * * * * * * * * //
Create time

Create mesh for time = 0


PIMPLE: Operating solver in PISO mode

Reading field p

Using #codeStream at line 19 in file "0/p"
Using #codeStream with "/home/hakan/courses/testSimulation/tgv2dTests/tgv2d_temporal/RK4Foam/RK4Foam_nu0.0000001/TGV_temporal/dynamicCode/platforms/linux64GccDPInt32Opt/lib/libcodeStream_537564b8bd232f4ddf4797bc6f60eef024868c2e.so"
Creating new library in "dynamicCode/_537564b8bd232f4ddf4797bc6f60eef024868c2e/platforms/linux64GccDPInt32Opt/lib/libcodeStream_537564b8bd232f4ddf4797bc6f60eef024868c2e.so"
Invoking wmake libso /home/hakan/courses/testSimulation/tgv2dTests/tgv2d_temporal/RK4Foam/RK4Foam_nu0.0000001/TGV_temporal/dynamicCode/_537564b8bd232f4ddf4797bc6f60eef024868c2e
wmake libso /home/hakan/courses/testSimulation/tgv2dTests/tgv2d_temporal/RK4Foam/RK4Foam_nu0.0000001/TGV_temporal/dynamicCode/_537564b8bd232f4ddf4797bc6f60eef024868c2e
    dep: codeStreamTemplate.C
    Ctoo: codeStreamTemplate.C
    link: /home/hakan/courses/testSimulation/tgv2dTests/tgv2d_temporal/RK4Foam/RK4Foam_nu0.0000001/TGV_temporal/dynamicCode/_537564b8bd232f4ddf4797bc6f60eef024868c2e/../platforms/linux64GccDPInt32Opt/lib/libcodeStream_537564b8bd232f4ddf4797bc6f60eef024868c2e.so
Reading field U

Using #codeStream at line 19 in file "0/U"
Using #codeStream with "/home/hakan/courses/testSimulation/tgv2dTests/tgv2d_temporal/RK4Foam/RK4Foam_nu0.0000001/TGV_temporal/dynamicCode/platforms/linux64GccDPInt32Opt/lib/libcodeStream_18dd48bdf5aea29696d9cbfe8eb27bc690b7dc03.so"
Creating new library in "dynamicCode/_18dd48bdf5aea29696d9cbfe8eb27bc690b7dc03/platforms/linux64GccDPInt32Opt/lib/libcodeStream_18dd48bdf5aea29696d9cbfe8eb27bc690b7dc03.so"
Invoking wmake libso /home/hakan/courses/testSimulation/tgv2dTests/tgv2d_temporal/RK4Foam/RK4Foam_nu0.0000001/TGV_temporal/dynamicCode/_18dd48bdf5aea29696d9cbfe8eb27bc690b7dc03
wmake libso /home/hakan/courses/testSimulation/tgv2dTests/tgv2d_temporal/RK4Foam/RK4Foam_nu0.0000001/TGV_temporal/dynamicCode/_18dd48bdf5aea29696d9cbfe8eb27bc690b7dc03
    dep: codeStreamTemplate.C
    Ctoo: codeStreamTemplate.C
    link: /home/hakan/courses/testSimulation/tgv2dTests/tgv2d_temporal/RK4Foam/RK4Foam_nu0.0000001/TGV_temporal/dynamicCode/_18dd48bdf5aea29696d9cbfe8eb27bc690b7dc03/../platforms/linux64GccDPInt32Opt/lib/libcodeStream_18dd48bdf5aea29696d9cbfe8eb27bc690b7dc03.so
Reading/calculating face flux field phi

Selecting incompressible transport model Newtonian
Selecting turbulence model type laminar
Selecting laminar stress model Stokes
Reading explicit source from transportProperties


 delPx = 0
 delPy = 0
 delPz = 0
No MRF models present

No finite volume options present
Courant Number mean: 0.495184637222 max: 0.610786900035
Courant Number mean: 0.495184637222 max: 0.610786900035

Starting time loop


Define RK4 coeff.

 b1 = 0.166666666667
 b2 = 0.333333333333
 b3 = 0.333333333333
 b4 = 0.166666666667
Using dynamicCode for functionObject diff at line 51 in "/home/hakan/courses/testSimulation/tgv2dTests/tgv2d_temporal/RK4Foam/RK4Foam_nu0.0000001/TGV_temporal/system/controlDict/functions/diff"
Creating new library in "dynamicCode/diff/platforms/linux64GccDPInt32Opt/lib/libdiff_d924c92ec3fe0b16fec6b8892a9fc1c20fa93dd8.so"
Invoking wmake libso /home/hakan/courses/testSimulation/tgv2dTests/tgv2d_temporal/RK4Foam/RK4Foam_nu0.0000001/TGV_temporal/dynamicCode/diff
wmake libso /home/hakan/courses/testSimulation/tgv2dTests/tgv2d_temporal/RK4Foam/RK4Foam_nu0.0000001/TGV_temporal/dynamicCode/diff
    dep: functionObjectTemplate.C
    Ctoo: functionObjectTemplate.C
    link: /home/hakan/courses/testSimulation/tgv2dTests/tgv2d_temporal/RK4Foam/RK4Foam_nu0.0000001/TGV_temporal/dynamicCode/diff/../platforms/linux64GccDPInt32Opt/lib/libdiff_d924c92ec3fe0b16fec6b8892a9fc1c20fa93dd8.so
Courant Number mean: 0.495184637222 max: 0.610786900035
Time = 0.03

time step continuity errors : sum local = 1.59485453514e-13, global = 2.23613386988e-19, cumulative = 2.23613386988e-19
DICPCG:  Solving for p, Initial residual = 0.334136523648, Final residual = 0.00314616845785, No Iterations 35
time step continuity errors : sum local = 2.56288418245e-06, global = 1.96292949377e-19, cumulative = 4.19906336364e-19
DICPCG:  Solving for p, Initial residual = 0.00480883989197, Final residual = 4.43199907467e-05, No Iterations 82
time step continuity errors : sum local = 9.14726989795e-07, global = 4.60634464493e-19, cumulative = 8.80540800858e-19
DICPCG:  Solving for p, Initial residual = 0.333366782645, Final residual = 0.00321783897015, No Iterations 35
time step continuity errors : sum local = 2.95445281499e-06, global = 3.31102745145e-20, cumulative = 9.13651075372e-19
DICPCG:  Solving for p, Initial residual = 0.00240183248534, Final residual = 2.1296825436e-05, No Iterations 82
ExecutionTime = 0.33 s  ClockTime = 28 s

    Reading error_velocity_mag (volScalarField)
    Reading error_velocity_mag_squ (volScalarField)
    Reading error_pres (volScalarField)
volFieldValue error_velocity_norm write:
    max(region0) of error_velocity_mag = 5.65983721109e-05

volFieldValue L2_error_velocity_norm write:
    sqrt(sum(region0)) of error_velocity_mag_squ = 0.00461781192529

volFieldValue error_pressure_norm write:
    max(region0) of error_pres = 0.000933486924505

Courant Number mean: 0.495184228216 max: 0.610787847779
Time = 0.06

time step continuity errors : sum local = 1.7618196399e-06, global = 1.12976582091e-19, cumulative = 1.02662765746e-18
DICPCG:  Solving for p, Initial residual = 0.33120078721, Final residual = 0.0031499372786, No Iterations 35
time step continuity errors : sum local = 2.54888047325e-06, global = 2.43821383866e-20, cumulative = 1.05100979585e-18
DICPCG:  Solving for p, Initial residual = 0.00479917239981, Final residual = 3.82670521598e-05, No Iterations 82
time step continuity errors : sum local = 9.31253670486e-07, global = -6.1534647037e-20, cumulative = 9.89475148813e-19
DICPCG:  Solving for p, Initial residual = 0.332297009252, Final residual = 0.00320845175779, No Iterations 35
time step continuity errors : sum local = 2.96099544866e-06, global = 6.74821380268e-20, cumulative = 1.05695728684e-18
DICPCG:  Solving for p, Initial residual = 0.00239798092374, Final residual = 2.11956232082e-05, No Iterations 82
ExecutionTime = 0.58 s  ClockTime = 28 s

volFieldValue error_velocity_norm write:
    max(region0) of error_velocity_mag = 5.65983721109e-05

volFieldValue L2_error_velocity_norm write:
    sqrt(sum(region0)) of error_velocity_mag_squ = 0.00461781192529

volFieldValue error_pressure_norm write:
    max(region0) of error_pres = 0.000933486924505

Courant Number mean: 0.495183686727 max: 0.61078856688
Time = 0.09

time step continuity errors : sum local = 1.77634301492e-06, global = 3.24537333013e-19, cumulative = 1.38149461985e-18
DICPCG:  Solving for p, Initial residual = 0.33226464119, Final residual = 0.00317190466708, No Iterations 35
time step continuity errors : sum local = 2.55793956458e-06, global = 2.26377984968e-20, cumulative = 1.40413241835e-18
DICPCG:  Solving for p, Initial residual = 0.00484403972225, Final residual = 4.35092325262e-05, No Iterations 82
time step continuity errors : sum local = 9.38038149052e-07, global = 3.49086825042e-19, cumulative = 1.75321924339e-18
DICPCG:  Solving for p, Initial residual = 0.332292758137, Final residual = 0.00320760761995, No Iterations 35
time step continuity errors : sum local = 2.96467031265e-06, global = -3.55459136817e-19, cumulative = 1.39776010658e-18
DICPCG:  Solving for p, Initial residual = 0.00239698934959, Final residual = 2.1204925448e-05, No Iterations 82
ExecutionTime = 0.82 s  ClockTime = 28 s

volFieldValue error_velocity_norm write:
    max(region0) of error_velocity_mag = 5.65983721109e-05

volFieldValue L2_error_velocity_norm write:
    sqrt(sum(region0)) of error_velocity_mag_squ = 0.00461781192529

volFieldValue error_pressure_norm write:
    max(region0) of error_pres = 0.000933486924505

Courant Number mean: 0.495183143301 max: 0.61078993138
Time = 0.12

time step continuity errors : sum local = 1.78213366788e-06, global = 2.31720428173e-21, cumulative = 1.40007731086e-18
DICPCG:  Solving for p, Initial residual = 0.33226708694, Final residual = 0.00317442900742, No Iterations 35
time step continuity errors : sum local = 2.55538809425e-06, global = 2.95173205421e-19, cumulative = 1.69525051628e-18
DICPCG:  Solving for p, Initial residual = 0.00484955753577, Final residual = 4.35016015176e-05, No Iterations 82
time step continuity errors : sum local = 9.39888643356e-07, global = -1.4392413261e-19, cumulative = 1.55132638367e-18
DICPCG:  Solving for p, Initial residual = 0.33229216664, Final residual = 0.00320798757601, No Iterations 35
time step continuity errors : sum local = 2.96599057291e-06, global = 1.0896009467e-19, cumulative = 1.66028647834e-18
DICPCG:  Solving for p, Initial residual = 0.00239707733648, Final residual = 2.12119410993e-05, No Iterations 82
ExecutionTime = 1.06 s  ClockTime = 28 s

volFieldValue error_velocity_norm write:
    max(region0) of error_velocity_mag = 5.65983721109e-05

volFieldValue L2_error_velocity_norm write:
    sqrt(sum(region0)) of error_velocity_mag_squ = 0.00461781192529

volFieldValue error_pressure_norm write:
    max(region0) of error_pres = 0.000933486924505

Courant Number mean: 0.495182602313 max: 0.610795415968
Time = 0.15

time step continuity errors : sum local = 1.78435492979e-06, global = 2.26571085325e-20, cumulative = 1.68294358687e-18
DICPCG:  Solving for p, Initial residual = 0.332267125572, Final residual = 0.00317311716853, No Iterations 35
time step continuity errors : sum local = 2.55336576526e-06, global = -1.02864560073e-19, cumulative = 1.5800790268e-18
DICPCG:  Solving for p, Initial residual = 0.00484866543438, Final residual = 4.35101075934e-05, No Iterations 82
time step continuity errors : sum local = 9.39518055397e-07, global = 4.83780760596e-20, cumulative = 1.62845710286e-18
DICPCG:  Solving for p, Initial residual = 0.332292263965, Final residual = 0.00320829311445, No Iterations 35
time step continuity errors : sum local = 2.96611900654e-06, global = 1.57853105014e-19, cumulative = 1.78631020787e-18
DICPCG:  Solving for p, Initial residual = 0.00239722386216, Final residual = 2.12215372943e-05, No Iterations 82
ExecutionTime = 1.29 s  ClockTime = 29 s

volFieldValue error_velocity_norm write:
    max(region0) of error_velocity_mag = 5.65983721109e-05

volFieldValue L2_error_velocity_norm write:
    sqrt(sum(region0)) of error_velocity_mag_squ = 0.00461781192529

volFieldValue error_pressure_norm write:
    max(region0) of error_pres = 0.000933486924505

Courant Number mean: 0.49518206381 max: 0.61080237548
Time = 0.18

time step continuity errors : sum local = 1.78455064128e-06, global = -1.46859258033e-19, cumulative = 1.63945094984e-18
DICPCG:  Solving for p, Initial residual = 0.332267516662, Final residual = 0.00317096682848, No Iterations 35
time step continuity errors : sum local = 2.55219777782e-06, global = -1.02291695681e-19, cumulative = 1.53715925416e-18
DICPCG:  Solving for p, Initial residual = 0.00484557815034, Final residual = 4.34009308336e-05, No Iterations 82
time step continuity errors : sum local = 9.38742320638e-07, global = 3.30227356861e-19, cumulative = 1.86738661102e-18
DICPCG:  Solving for p, Initial residual = 0.332292753947, Final residual = 0.00320848709411, No Iterations 35
time step continuity errors : sum local = 2.96590581624e-06, global = -2.45494920292e-19, cumulative = 1.62189169073e-18
DICPCG:  Solving for p, Initial residual = 0.00239739501321, Final residual = 2.12284309777e-05, No Iterations 82
ExecutionTime = 1.54 s  ClockTime = 29 s

volFieldValue error_velocity_norm write:
    max(region0) of error_velocity_mag = 5.65983721109e-05

volFieldValue L2_error_velocity_norm write:
    sqrt(sum(region0)) of error_velocity_mag_squ = 0.00461781192529

volFieldValue error_pressure_norm write:
    max(region0) of error_pres = 0.000933486924505

Courant Number mean: 0.495181527357 max: 0.610809128735
Time = 0.21

time step continuity errors : sum local = 1.78364810724e-06, global = -2.04531897934e-19, cumulative = 1.41735979279e-18
DICPCG:  Solving for p, Initial residual = 0.332268034505, Final residual = 0.00316917605164, No Iterations 35
time step continuity errors : sum local = 2.55137924877e-06, global = 3.43120024017e-19, cumulative = 1.76047981681e-18
DICPCG:  Solving for p, Initial residual = 0.00484273071447, Final residual = 4.35444967149e-05, No Iterations 82
time step continuity errors : sum local = 9.37836377515e-07, global = 3.10093426324e-19, cumulative = 2.07057324313e-18
DICPCG:  Solving for p, Initial residual = 0.332293136299, Final residual = 0.00320845730639, No Iterations 35
time step continuity errors : sum local = 2.96565253046e-06, global = -1.78424729693e-20, cumulative = 2.05273077016e-18
DICPCG:  Solving for p, Initial residual = 0.00239745523861, Final residual = 2.12366747468e-05, No Iterations 82
ExecutionTime = 1.77 s  ClockTime = 29 s

volFieldValue error_velocity_norm write:
    max(region0) of error_velocity_mag = 5.65983721109e-05

volFieldValue L2_error_velocity_norm write:
    sqrt(sum(region0)) of error_velocity_mag_squ = 0.00461781192529

volFieldValue error_pressure_norm write:
    max(region0) of error_pres = 0.000933486924505

Courant Number mean: 0.495180992119 max: 0.610814048105
Time = 0.24

time step continuity errors : sum local = 1.78245104747e-06, global = -8.48611701397e-20, cumulative = 1.96786960002e-18
DICPCG:  Solving for p, Initial residual = 0.332268284229, Final residual = 0.0031682215052, No Iterations 35
time step continuity errors : sum local = 2.55088309831e-06, global = 1.31572146452e-19, cumulative = 2.09944174648e-18
DICPCG:  Solving for p, Initial residual = 0.0048409724233, Final residual = 4.35443830974e-05, No Iterations 82
time step continuity errors : sum local = 9.37166717233e-07, global = -4.60608717779e-20, cumulative = 2.0533808747e-18
DICPCG:  Solving for p, Initial residual = 0.332293260829, Final residual = 0.00320836997335, No Iterations 35
time step continuity errors : sum local = 2.9655020557e-06, global = 2.06849102216e-19, cumulative = 2.26022997691e-18
DICPCG:  Solving for p, Initial residual = 0.00239744662108, Final residual = 2.12315196348e-05, No Iterations 82
ExecutionTime = 2.01 s  ClockTime = 29 s

volFieldValue error_velocity_norm write:
    max(region0) of error_velocity_mag = 5.65983721109e-05

volFieldValue L2_error_velocity_norm write:
    sqrt(sum(region0)) of error_velocity_mag_squ = 0.00461781192529

volFieldValue error_pressure_norm write:
    max(region0) of error_pres = 0.000933486924505

Courant Number mean: 0.495180457744 max: 0.610816199503
Time = 0.27

time step continuity errors : sum local = 1.78176397455e-06, global = -3.70752685077e-20, cumulative = 2.22315470841e-18
DICPCG:  Solving for p, Initial residual = 0.332268222161, Final residual = 0.00316795706627, No Iterations 35
time step continuity errors : sum local = 2.55074083413e-06, global = 2.54834540883e-19, cumulative = 2.47798924929e-18
DICPCG:  Solving for p, Initial residual = 0.00484030575246, Final residual = 4.35506010301e-05, No Iterations 82
time step continuity errors : sum local = 9.37019571542e-07, global = 4.27421203122e-19, cumulative = 2.90541045241e-18
DICPCG:  Solving for p, Initial residual = 0.332293200539, Final residual = 0.00320827530358, No Iterations 35
time step continuity errors : sum local = 2.9653407149e-06, global = -2.42534048154e-20, cumulative = 2.88115704759e-18
DICPCG:  Solving for p, Initial residual = 0.00239740186281, Final residual = 2.12320263662e-05, No Iterations 82
ExecutionTime = 2.26 s  ClockTime = 30 s

volFieldValue error_velocity_norm write:
    max(region0) of error_velocity_mag = 5.65983721109e-05

volFieldValue L2_error_velocity_norm write:
    sqrt(sum(region0)) of error_velocity_mag_squ = 0.00461781192529

volFieldValue error_pressure_norm write:
    max(region0) of error_pres = 0.000933486924505

Courant Number mean: 0.495179924444 max: 0.610815582817
Time = 0.3

time step continuity errors : sum local = 1.78153611177e-06, global = 1.09320548669e-19, cumulative = 2.99047759626e-18
DICPCG:  Solving for p, Initial residual = 0.332268018964, Final residual = 0.00316813115623, No Iterations 35
time step continuity errors : sum local = 2.5508595908e-06, global = -1.63742665897e-19, cumulative = 2.82673493037e-18
DICPCG:  Solving for p, Initial residual = 0.00484044138323, Final residual = 4.35526824166e-05, No Iterations 82
time step continuity errors : sum local = 9.37130203768e-07, global = 9.19672632704e-20, cumulative = 2.91870219364e-18
DICPCG:  Solving for p, Initial residual = 0.33229308762, Final residual = 0.00320823004682, No Iterations 35
time step continuity errors : sum local = 2.96518008721e-06, global = -2.29918158176e-20, cumulative = 2.89571037782e-18
DICPCG:  Solving for p, Initial residual = 0.00239736982055, Final residual = 2.12305683617e-05, No Iterations 82
ExecutionTime = 2.49 s  ClockTime = 30 s

volFieldValue error_velocity_norm write:
    max(region0) of error_velocity_mag = 5.65983721109e-05

volFieldValue L2_error_velocity_norm write:
    sqrt(sum(region0)) of error_velocity_mag_squ = 0.00461781192529

volFieldValue error_pressure_norm write:
    max(region0) of error_pres = 0.000933486924505

End

