/*---------------------------------------------------------------------------*\
| =========                 |                                                 |
| \\      /  F ield         | OpenFOAM: The Open Source CFD Toolbox           |
|  \\    /   O peration     | Version:  2406                                  |
|   \\  /    A nd           | Website:  www.openfoam.com                      |
|    \\/     M anipulation  |                                                 |
\*---------------------------------------------------------------------------*/
Build  : _630d60de3b-20240620 OPENFOAM=2406 version=v2406
Arch   : "LSB;label=32;scalar=64"
Exec   : RK4Foam
Date   : Sep 06 2024
Time   : 11:31:16
Host   : hakan-X556UQK
PID    : 33982
I/O    : uncollated
Case   : /home/hakan/courses/testSimulation/tgv2dTests/tgv2d_temporal/RK4Foam/RK4Foam_nu0.0000001/TGV_temporal
nProcs : 1
trapFpe: Floating point exception trapping enabled (FOAM_SIGFPE).
fileModificationChecking : Monitoring run-time modified files using timeStampMaster (fileModificationSkew 5, maxFileModificationPolls 20)
allowSystemOperations : Allowing user-supplied system call operations

// * * * * * * * * * * * * * * * * * * * * * * * * * * * * * * * * * * * * * //
Create time

Create mesh for time = 0


PIMPLE: Operating solver in PISO mode

Reading field p

Using #codeStream at line 19 in file "0/p"
Using #codeStream with "/home/hakan/courses/testSimulation/tgv2dTests/tgv2d_temporal/RK4Foam/RK4Foam_nu0.0000001/TGV_temporal/dynamicCode/platforms/linux64GccDPInt32Opt/lib/libcodeStream_537564b8bd232f4ddf4797bc6f60eef024868c2e.so"
Creating new library in "dynamicCode/_537564b8bd232f4ddf4797bc6f60eef024868c2e/platforms/linux64GccDPInt32Opt/lib/libcodeStream_537564b8bd232f4ddf4797bc6f60eef024868c2e.so"
Invoking wmake libso /home/hakan/courses/testSimulation/tgv2dTests/tgv2d_temporal/RK4Foam/RK4Foam_nu0.0000001/TGV_temporal/dynamicCode/_537564b8bd232f4ddf4797bc6f60eef024868c2e
wmake libso /home/hakan/courses/testSimulation/tgv2dTests/tgv2d_temporal/RK4Foam/RK4Foam_nu0.0000001/TGV_temporal/dynamicCode/_537564b8bd232f4ddf4797bc6f60eef024868c2e
    dep: codeStreamTemplate.C
    Ctoo: codeStreamTemplate.C
    link: /home/hakan/courses/testSimulation/tgv2dTests/tgv2d_temporal/RK4Foam/RK4Foam_nu0.0000001/TGV_temporal/dynamicCode/_537564b8bd232f4ddf4797bc6f60eef024868c2e/../platforms/linux64GccDPInt32Opt/lib/libcodeStream_537564b8bd232f4ddf4797bc6f60eef024868c2e.so
Reading field U

Using #codeStream at line 19 in file "0/U"
Using #codeStream with "/home/hakan/courses/testSimulation/tgv2dTests/tgv2d_temporal/RK4Foam/RK4Foam_nu0.0000001/TGV_temporal/dynamicCode/platforms/linux64GccDPInt32Opt/lib/libcodeStream_18dd48bdf5aea29696d9cbfe8eb27bc690b7dc03.so"
Creating new library in "dynamicCode/_18dd48bdf5aea29696d9cbfe8eb27bc690b7dc03/platforms/linux64GccDPInt32Opt/lib/libcodeStream_18dd48bdf5aea29696d9cbfe8eb27bc690b7dc03.so"
Invoking wmake libso /home/hakan/courses/testSimulation/tgv2dTests/tgv2d_temporal/RK4Foam/RK4Foam_nu0.0000001/TGV_temporal/dynamicCode/_18dd48bdf5aea29696d9cbfe8eb27bc690b7dc03
wmake libso /home/hakan/courses/testSimulation/tgv2dTests/tgv2d_temporal/RK4Foam/RK4Foam_nu0.0000001/TGV_temporal/dynamicCode/_18dd48bdf5aea29696d9cbfe8eb27bc690b7dc03
    dep: codeStreamTemplate.C
    Ctoo: codeStreamTemplate.C
    link: /home/hakan/courses/testSimulation/tgv2dTests/tgv2d_temporal/RK4Foam/RK4Foam_nu0.0000001/TGV_temporal/dynamicCode/_18dd48bdf5aea29696d9cbfe8eb27bc690b7dc03/../platforms/linux64GccDPInt32Opt/lib/libcodeStream_18dd48bdf5aea29696d9cbfe8eb27bc690b7dc03.so
Reading/calculating face flux field phi

Selecting incompressible transport model Newtonian
Selecting turbulence model type laminar
Selecting laminar stress model Stokes
Reading explicit source from transportProperties


 delPx = 0
 delPy = 0
 delPz = 0
No MRF models present

No finite volume options present
Courant Number mean: 0.247592318611 max: 0.305393450017
Courant Number mean: 0.247592318611 max: 0.305393450017

Starting time loop


Define RK4 coeff.

 b1 = 0.166666666667
 b2 = 0.333333333333
 b3 = 0.333333333333
 b4 = 0.166666666667
Using dynamicCode for functionObject diff at line 51 in "/home/hakan/courses/testSimulation/tgv2dTests/tgv2d_temporal/RK4Foam/RK4Foam_nu0.0000001/TGV_temporal/system/controlDict/functions/diff"
Creating new library in "dynamicCode/diff/platforms/linux64GccDPInt32Opt/lib/libdiff_d924c92ec3fe0b16fec6b8892a9fc1c20fa93dd8.so"
Invoking wmake libso /home/hakan/courses/testSimulation/tgv2dTests/tgv2d_temporal/RK4Foam/RK4Foam_nu0.0000001/TGV_temporal/dynamicCode/diff
wmake libso /home/hakan/courses/testSimulation/tgv2dTests/tgv2d_temporal/RK4Foam/RK4Foam_nu0.0000001/TGV_temporal/dynamicCode/diff
    dep: functionObjectTemplate.C
    Ctoo: functionObjectTemplate.C
    link: /home/hakan/courses/testSimulation/tgv2dTests/tgv2d_temporal/RK4Foam/RK4Foam_nu0.0000001/TGV_temporal/dynamicCode/diff/../platforms/linux64GccDPInt32Opt/lib/libdiff_d924c92ec3fe0b16fec6b8892a9fc1c20fa93dd8.so
Courant Number mean: 0.247592318611 max: 0.305393450017
Time = 0.015

time step continuity errors : sum local = 7.9742726757e-14, global = 1.11806693494e-19, cumulative = 1.11806693494e-19
DICPCG:  Solving for p, Initial residual = 0.334136523651, Final residual = 0.00314616832741, No Iterations 35
time step continuity errors : sum local = 6.40721055569e-07, global = -1.50862872098e-19, cumulative = -3.90561786037e-20
DICPCG:  Solving for p, Initial residual = 0.00475448208962, Final residual = 4.27526890537e-05, No Iterations 82
time step continuity errors : sum local = 2.22773265033e-07, global = 5.73057492229e-20, cumulative = 1.82495706191e-20
DICPCG:  Solving for p, Initial residual = 0.333346741236, Final residual = 0.00319197227697, No Iterations 35
time step continuity errors : sum local = 7.30729836071e-07, global = 2.13195667276e-19, cumulative = 2.31445237895e-19
DICPCG:  Solving for p, Initial residual = 0.00239179072676, Final residual = 2.10383753578e-05, No Iterations 82
ExecutionTime = 0.32 s  ClockTime = 25 s

    Reading error_velocity_mag (volScalarField)
    Reading error_velocity_mag_squ (volScalarField)
    Reading error_pres (volScalarField)
volFieldValue error_velocity_norm write:
    max(region0) of error_velocity_mag = 2.56164230359e-05

volFieldValue L2_error_velocity_norm write:
    sqrt(sum(region0)) of error_velocity_mag_squ = 0.00230796152822

volFieldValue error_pressure_norm write:
    max(region0) of error_pres = 0.000912124738755

Courant Number mean: 0.247592267224 max: 0.305393587394
Time = 0.03

time step continuity errors : sum local = 4.38800912082e-07, global = -5.15706686256e-20, cumulative = 1.7987456927e-19
DICPCG:  Solving for p, Initial residual = 0.331199575398, Final residual = 0.0031301865636, No Iterations 35
time step continuity errors : sum local = 6.36714509246e-07, global = -2.18628223981e-19, cumulative = -3.87536547114e-20
DICPCG:  Solving for p, Initial residual = 0.00471028361974, Final residual = 4.22086092202e-05, No Iterations 82
time step continuity errors : sum local = 2.24817769879e-07, global = 8.84399634193e-21, cumulative = -2.99096583695e-20
DICPCG:  Solving for p, Initial residual = 0.332278649726, Final residual = 0.00318135520143, No Iterations 35
time step continuity errors : sum local = 7.31667934242e-07, global = 3.18358121595e-20, cumulative = 1.92615379007e-21
DICPCG:  Solving for p, Initial residual = 0.00238568841195, Final residual = 2.10106247096e-05, No Iterations 82
ExecutionTime = 0.57 s  ClockTime = 26 s

volFieldValue error_velocity_norm write:
    max(region0) of error_velocity_mag = 2.56164230359e-05

volFieldValue L2_error_velocity_norm write:
    sqrt(sum(region0)) of error_velocity_mag_squ = 0.00230796152822

volFieldValue error_pressure_norm write:
    max(region0) of error_pres = 0.000912124738755

Courant Number mean: 0.247592198934 max: 0.305393674095
Time = 0.045

time step continuity errors : sum local = 4.40687132559e-07, global = 1.64122429932e-19, cumulative = 1.66048583722e-19
DICPCG:  Solving for p, Initial residual = 0.332263646703, Final residual = 0.00314503150104, No Iterations 35
time step continuity errors : sum local = 6.39446305187e-07, global = 9.9739552632e-20, cumulative = 2.65788136354e-19
DICPCG:  Solving for p, Initial residual = 0.00474079578792, Final residual = 4.23726932101e-05, No Iterations 82
time step continuity errors : sum local = 2.25646135728e-07, global = 6.19208477506e-20, cumulative = 3.27708984105e-19
DICPCG:  Solving for p, Initial residual = 0.332275223309, Final residual = 0.00318156210658, No Iterations 35
time step continuity errors : sum local = 7.32053445373e-07, global = 1.85118875396e-20, cumulative = 3.46220871644e-19
DICPCG:  Solving for p, Initial residual = 0.0023859205018, Final residual = 2.10130228358e-05, No Iterations 82
ExecutionTime = 0.81 s  ClockTime = 26 s

volFieldValue error_velocity_norm write:
    max(region0) of error_velocity_mag = 2.56164230359e-05

volFieldValue L2_error_velocity_norm write:
    sqrt(sum(region0)) of error_velocity_mag_squ = 0.00230796152822

volFieldValue error_pressure_norm write:
    max(region0) of error_pres = 0.000912124738755

Courant Number mean: 0.24759213016 max: 0.30539376093
Time = 0.06

time step continuity errors : sum local = 4.41349704178e-07, global = -6.50168901382e-20, cumulative = 2.81203981506e-19
DICPCG:  Solving for p, Initial residual = 0.332265772121, Final residual = 0.00314696904854, No Iterations 35
time step continuity errors : sum local = 6.39330353916e-07, global = 3.47290991724e-20, cumulative = 3.15933080678e-19
DICPCG:  Solving for p, Initial residual = 0.00474387303384, Final residual = 4.12330732559e-05, No Iterations 82
time step continuity errors : sum local = 2.26172938482e-07, global = 4.22342663738e-20, cumulative = 3.58167347052e-19
DICPCG:  Solving for p, Initial residual = 0.332274564894, Final residual = 0.00318169567452, No Iterations 35
time step continuity errors : sum local = 7.32316443077e-07, global = 1.13240485912e-19, cumulative = 4.71407832965e-19
DICPCG:  Solving for p, Initial residual = 0.00238603080583, Final residual = 2.1003320528e-05, No Iterations 82
ExecutionTime = 1.05 s  ClockTime = 26 s

volFieldValue error_velocity_norm write:
    max(region0) of error_velocity_mag = 2.56164230359e-05

volFieldValue L2_error_velocity_norm write:
    sqrt(sum(region0)) of error_velocity_mag_squ = 0.00230796152822

volFieldValue error_pressure_norm write:
    max(region0) of error_pres = 0.000912124738755

Courant Number mean: 0.247592061463 max: 0.305393844732
Time = 0.075

time step continuity errors : sum local = 4.41820700227e-07, global = 4.29133359619e-20, cumulative = 5.14321168927e-19
DICPCG:  Solving for p, Initial residual = 0.332265420211, Final residual = 0.00314746187654, No Iterations 35
time step continuity errors : sum local = 6.39164317891e-07, global = 3.22992530159e-20, cumulative = 5.46620421942e-19
DICPCG:  Solving for p, Initial residual = 0.00474465428145, Final residual = 4.24041656553e-05, No Iterations 82
time step continuity errors : sum local = 2.26506372448e-07, global = -4.98552937892e-20, cumulative = 4.96765128153e-19
DICPCG:  Solving for p, Initial residual = 0.332274103537, Final residual = 0.00318153857668, No Iterations 35
time step continuity errors : sum local = 7.32517179147e-07, global = 9.80692345456e-20, cumulative = 5.94834362699e-19
DICPCG:  Solving for p, Initial residual = 0.00238588412181, Final residual = 2.10042043739e-05, No Iterations 82
ExecutionTime = 1.29 s  ClockTime = 26 s

volFieldValue error_velocity_norm write:
    max(region0) of error_velocity_mag = 2.56164230359e-05

volFieldValue L2_error_velocity_norm write:
    sqrt(sum(region0)) of error_velocity_mag_squ = 0.00230796152822

volFieldValue error_pressure_norm write:
    max(region0) of error_pres = 0.000912124738755

Courant Number mean: 0.247591992879 max: 0.305393944186
Time = 0.09

time step continuity errors : sum local = 4.42130972757e-07, global = 4.68397098837e-20, cumulative = 6.41674072582e-19
DICPCG:  Solving for p, Initial residual = 0.332265184245, Final residual = 0.00314748774515, No Iterations 35
time step continuity errors : sum local = 6.39027122455e-07, global = -1.1902062326e-19, cumulative = 5.22653449323e-19
DICPCG:  Solving for p, Initial residual = 0.00474467284115, Final residual = 4.24048281634e-05, No Iterations 82
time step continuity errors : sum local = 2.26706458186e-07, global = 4.60447800815e-20, cumulative = 5.68698229404e-19
DICPCG:  Solving for p, Initial residual = 0.332273838133, Final residual = 0.0031815498438, No Iterations 35
time step continuity errors : sum local = 7.32646087619e-07, global = 9.52692793718e-20, cumulative = 6.63967508776e-19
DICPCG:  Solving for p, Initial residual = 0.00238587533547, Final residual = 2.09586501509e-05, No Iterations 82
ExecutionTime = 1.53 s  ClockTime = 27 s

volFieldValue error_velocity_norm write:
    max(region0) of error_velocity_mag = 2.56164230359e-05

volFieldValue L2_error_velocity_norm write:
    sqrt(sum(region0)) of error_velocity_mag_squ = 0.00230796152822

volFieldValue error_pressure_norm write:
    max(region0) of error_pres = 0.000912124738755

Courant Number mean: 0.247591924426 max: 0.305394042179
Time = 0.105

time step continuity errors : sum local = 4.42300493574e-07, global = -2.81791350694e-19, cumulative = 3.82176158082e-19
DICPCG:  Solving for p, Initial residual = 0.33226508101, Final residual = 0.00314735969033, No Iterations 35
time step continuity errors : sum local = 6.3892477821e-07, global = -7.97311373271e-20, cumulative = 3.02445020755e-19
DICPCG:  Solving for p, Initial residual = 0.0047444303593, Final residual = 4.23960592079e-05, No Iterations 82
time step continuity errors : sum local = 2.26799900087e-07, global = -5.82068842213e-20, cumulative = 2.44238136534e-19
DICPCG:  Solving for p, Initial residual = 0.332273702529, Final residual = 0.00318156732135, No Iterations 35
time step continuity errors : sum local = 7.32734773444e-07, global = -6.45341392461e-20, cumulative = 1.79703997288e-19
DICPCG:  Solving for p, Initial residual = 0.00238587502402, Final residual = 2.10044333318e-05, No Iterations 82
ExecutionTime = 1.77 s  ClockTime = 27 s

volFieldValue error_velocity_norm write:
    max(region0) of error_velocity_mag = 2.56164230359e-05

volFieldValue L2_error_velocity_norm write:
    sqrt(sum(region0)) of error_velocity_mag_squ = 0.00230796152822

volFieldValue error_pressure_norm write:
    max(region0) of error_pres = 0.000912124738755

Courant Number mean: 0.247591856127 max: 0.305394136978
Time = 0.12

time step continuity errors : sum local = 4.42371134183e-07, global = -3.6045399938e-20, cumulative = 1.4365859735e-19
DICPCG:  Solving for p, Initial residual = 0.332265083961, Final residual = 0.00314729145006, No Iterations 35
time step continuity errors : sum local = 6.38875953369e-07, global = 5.28097292484e-20, cumulative = 1.96468326598e-19
DICPCG:  Solving for p, Initial residual = 0.0047443055201, Final residual = 4.24096858934e-05, No Iterations 82
time step continuity errors : sum local = 2.26828997475e-07, global = 6.73019110271e-20, cumulative = 2.63770237625e-19
DICPCG:  Solving for p, Initial residual = 0.332273652683, Final residual = 0.00318158909527, No Iterations 35
time step continuity errors : sum local = 7.32782423486e-07, global = -1.2514190457e-19, cumulative = 1.38628333055e-19
DICPCG:  Solving for p, Initial residual = 0.00238588298295, Final residual = 2.10009081781e-05, No Iterations 82
ExecutionTime = 2.01 s  ClockTime = 27 s

volFieldValue error_velocity_norm write:
    max(region0) of error_velocity_mag = 2.56164230359e-05

volFieldValue L2_error_velocity_norm write:
    sqrt(sum(region0)) of error_velocity_mag_squ = 0.00230796152822

volFieldValue error_pressure_norm write:
    max(region0) of error_pres = 0.000912124738755

Courant Number mean: 0.247591787985 max: 0.30539422708
Time = 0.135

time step continuity errors : sum local = 4.42389046934e-07, global = -8.31232669284e-20, cumulative = 5.55050661265e-20
DICPCG:  Solving for p, Initial residual = 0.332265119508, Final residual = 0.00314719255071, No Iterations 35
time step continuity errors : sum local = 6.38838714563e-07, global = 3.71074519005e-20, cumulative = 9.26125180269e-20
DICPCG:  Solving for p, Initial residual = 0.00474412108718, Final residual = 4.2400120331e-05, No Iterations 82
time step continuity errors : sum local = 2.26814654518e-07, global = -1.06494846781e-19, cumulative = -1.38823287542e-20
DICPCG:  Solving for p, Initial residual = 0.332273653761, Final residual = 0.00318161161393, No Iterations 35
time step continuity errors : sum local = 7.32813196409e-07, global = 1.85363469181e-19, cumulative = 1.71481140427e-19
DICPCG:  Solving for p, Initial residual = 0.00238589611362, Final residual = 2.10046114952e-05, No Iterations 82
ExecutionTime = 2.26 s  ClockTime = 27 s

volFieldValue error_velocity_norm write:
    max(region0) of error_velocity_mag = 2.56164230359e-05

volFieldValue L2_error_velocity_norm write:
    sqrt(sum(region0)) of error_velocity_mag_squ = 0.00230796152822

volFieldValue error_pressure_norm write:
    max(region0) of error_pres = 0.000912124738755

Courant Number mean: 0.247591720026 max: 0.305394636658
Time = 0.15

time step continuity errors : sum local = 4.42391515908e-07, global = 6.31566900342e-20, cumulative = 2.34637830461e-19
DICPCG:  Solving for p, Initial residual = 0.332265177807, Final residual = 0.00314713625098, No Iterations 35
time step continuity errors : sum local = 6.38814417176e-07, global = 1.32602015022e-19, cumulative = 3.67239845483e-19
DICPCG:  Solving for p, Initial residual = 0.0047440112289, Final residual = 4.24013184587e-05, No Iterations 82
time step continuity errors : sum local = 2.26785565985e-07, global = -1.39840060063e-19, cumulative = 2.2739978542e-19
DICPCG:  Solving for p, Initial residual = 0.332273692955, Final residual = 0.00318163518735, No Iterations 35
time step continuity errors : sum local = 7.32832527061e-07, global = -1.94748146522e-19, cumulative = 3.26516388979e-20
DICPCG:  Solving for p, Initial residual = 0.00238591369301, Final residual = 2.10099038189e-05, No Iterations 82
ExecutionTime = 2.49 s  ClockTime = 28 s

volFieldValue error_velocity_norm write:
    max(region0) of error_velocity_mag = 2.56164230359e-05

volFieldValue L2_error_velocity_norm write:
    sqrt(sum(region0)) of error_velocity_mag_squ = 0.00230796152822

volFieldValue error_pressure_norm write:
    max(region0) of error_pres = 0.000912124738755

Courant Number mean: 0.24759165224 max: 0.30539535114
Time = 0.165

time step continuity errors : sum local = 4.42376042883e-07, global = 1.42508063326e-19, cumulative = 1.75159702224e-19
DICPCG:  Solving for p, Initial residual = 0.332265241321, Final residual = 0.00314710850028, No Iterations 35
time step continuity errors : sum local = 6.38798793039e-07, global = 3.87584599512e-20, cumulative = 2.13918162175e-19
DICPCG:  Solving for p, Initial residual = 0.00474395014133, Final residual = 4.24064503602e-05, No Iterations 82
time step continuity errors : sum local = 2.26744273441e-07, global = 8.96629323458e-21, cumulative = 2.2288445541e-19
DICPCG:  Solving for p, Initial residual = 0.332273749123, Final residual = 0.00318165657384, No Iterations 35
time step continuity errors : sum local = 7.32842330843e-07, global = -4.63312122774e-20, cumulative = 1.76553243133e-19
DICPCG:  Solving for p, Initial residual = 0.0023859318896, Final residual = 2.0990667263e-05, No Iterations 82
ExecutionTime = 2.74 s  ClockTime = 28 s

volFieldValue error_velocity_norm write:
    max(region0) of error_velocity_mag = 2.56164230359e-05

volFieldValue L2_error_velocity_norm write:
    sqrt(sum(region0)) of error_velocity_mag_squ = 0.00230796152822

volFieldValue error_pressure_norm write:
    max(region0) of error_pres = 0.000912124738755

Courant Number mean: 0.247591584593 max: 0.305396121424
Time = 0.18

time step continuity errors : sum local = 4.42347153785e-07, global = 3.52086317251e-20, cumulative = 2.11761874858e-19
DICPCG:  Solving for p, Initial residual = 0.332265293246, Final residual = 0.0031471140456, No Iterations 35
time step continuity errors : sum local = 6.38792877798e-07, global = 5.42998203352e-20, cumulative = 2.66061695193e-19
DICPCG:  Solving for p, Initial residual = 0.00474394670474, Final residual = 4.24026497376e-05, No Iterations 82
time step continuity errors : sum local = 2.26702331837e-07, global = -7.82185178654e-20, cumulative = 1.87843177327e-19
DICPCG:  Solving for p, Initial residual = 0.332273805379, Final residual = 0.0031816744522, No Iterations 35
time step continuity errors : sum local = 7.32842394452e-07, global = -1.57054956873e-20, cumulative = 1.7213768164e-19
DICPCG:  Solving for p, Initial residual = 0.00238594849715, Final residual = 2.10082669396e-05, No Iterations 82
ExecutionTime = 2.99 s  ClockTime = 28 s

volFieldValue error_velocity_norm write:
    max(region0) of error_velocity_mag = 2.56164230359e-05

volFieldValue L2_error_velocity_norm write:
    sqrt(sum(region0)) of error_velocity_mag_squ = 0.00230796152822

volFieldValue error_pressure_norm write:
    max(region0) of error_pres = 0.000912124738755

Courant Number mean: 0.247591517066 max: 0.305396906664
Time = 0.195

time step continuity errors : sum local = 4.42311131068e-07, global = 5.44800473349e-20, cumulative = 2.26617728975e-19
DICPCG:  Solving for p, Initial residual = 0.332265336954, Final residual = 0.00314707193384, No Iterations 35
time step continuity errors : sum local = 6.38775739448e-07, global = -6.71667407773e-21, cumulative = 2.19901054897e-19
DICPCG:  Solving for p, Initial residual = 0.00474386627336, Final residual = 4.24090879436e-05, No Iterations 82
time step continuity errors : sum local = 2.26671671566e-07, global = -8.65861999939e-20, cumulative = 1.33314854903e-19
DICPCG:  Solving for p, Initial residual = 0.332273852985, Final residual = 0.00318168633172, No Iterations 35
time step continuity errors : sum local = 7.32841208403e-07, global = 1.4839118753e-19, cumulative = 2.81706042434e-19
DICPCG:  Solving for p, Initial residual = 0.0023859612464, Final residual = 2.09892862071e-05, No Iterations 82
ExecutionTime = 3.23 s  ClockTime = 28 s

volFieldValue error_velocity_norm write:
    max(region0) of error_velocity_mag = 2.56164230359e-05

volFieldValue L2_error_velocity_norm write:
    sqrt(sum(region0)) of error_velocity_mag_squ = 0.00230796152822

volFieldValue error_pressure_norm write:
    max(region0) of error_pres = 0.000912124738755

Courant Number mean: 0.247591449686 max: 0.305397665857
Time = 0.21

time step continuity errors : sum local = 4.42277419942e-07, global = -4.26751788552e-20, cumulative = 2.39030863579e-19
DICPCG:  Solving for p, Initial residual = 0.332265357596, Final residual = 0.00314708061294, No Iterations 35
time step continuity errors : sum local = 6.38769251734e-07, global = 1.02484796038e-19, cumulative = 3.41515659617e-19
DICPCG:  Solving for p, Initial residual = 0.00474387294437, Final residual = 4.24147177997e-05, No Iterations 82
time step continuity errors : sum local = 2.26651474707e-07, global = -5.74602295083e-20, cumulative = 2.84055430108e-19
DICPCG:  Solving for p, Initial residual = 0.332273886898, Final residual = 0.0031816907758, No Iterations 35
time step continuity errors : sum local = 7.32832528598e-07, global = 8.54211611745e-20, cumulative = 3.69476591283e-19
DICPCG:  Solving for p, Initial residual = 0.00238596712522, Final residual = 2.10055991464e-05, No Iterations 82
ExecutionTime = 3.46 s  ClockTime = 29 s

volFieldValue error_velocity_norm write:
    max(region0) of error_velocity_mag = 2.56164230359e-05

volFieldValue L2_error_velocity_norm write:
    sqrt(sum(region0)) of error_velocity_mag_squ = 0.00230796152822

volFieldValue error_pressure_norm write:
    max(region0) of error_pres = 0.000912124738755

Courant Number mean: 0.247591382436 max: 0.305398361005
Time = 0.225

time step continuity errors : sum local = 4.42253252314e-07, global = 2.3481647056e-19, cumulative = 6.04293061843e-19
DICPCG:  Solving for p, Initial residual = 0.332265369395, Final residual = 0.00314703597141, No Iterations 35
time step continuity errors : sum local = 6.38755067382e-07, global = -1.03379494358e-19, cumulative = 5.00913567485e-19
DICPCG:  Solving for p, Initial residual = 0.00474379407772, Final residual = 4.24041116029e-05, No Iterations 82
time step continuity errors : sum local = 2.2664630271e-07, global = 4.22181746774e-20, cumulative = 5.43131742163e-19
DICPCG:  Solving for p, Initial residual = 0.332273907395, Final residual = 0.00318168958625, No Iterations 35
time step continuity errors : sum local = 7.32826386249e-07, global = 1.15647803694e-19, cumulative = 6.58779545857e-19
DICPCG:  Solving for p, Initial residual = 0.00238596853743, Final residual = 2.1013074747e-05, No Iterations 82
ExecutionTime = 3.7 s  ClockTime = 29 s

volFieldValue error_velocity_norm write:
    max(region0) of error_velocity_mag = 2.56164230359e-05

volFieldValue L2_error_velocity_norm write:
    sqrt(sum(region0)) of error_velocity_mag_squ = 0.00230796152822

volFieldValue error_pressure_norm write:
    max(region0) of error_pres = 0.000912124738755

Courant Number mean: 0.247591315285 max: 0.305398959485
Time = 0.24

time step continuity errors : sum local = 4.42241148962e-07, global = 2.23095278902e-20, cumulative = 6.81089073747e-19
DICPCG:  Solving for p, Initial residual = 0.332265367246, Final residual = 0.00314702103551, No Iterations 35
time step continuity errors : sum local = 6.38746889527e-07, global = -5.23881268027e-20, cumulative = 6.28700946944e-19
DICPCG:  Solving for p, Initial residual = 0.00474376619217, Final residual = 4.23590771618e-05, No Iterations 82
time step continuity errors : sum local = 2.26646434447e-07, global = 7.27151576963e-20, cumulative = 7.0141610464e-19
DICPCG:  Solving for p, Initial residual = 0.332273917906, Final residual = 0.00318169387676, No Iterations 35
time step continuity errors : sum local = 7.32819299561e-07, global = 8.31554503212e-20, cumulative = 7.84571554962e-19
DICPCG:  Solving for p, Initial residual = 0.00238597383103, Final residual = 2.10060499537e-05, No Iterations 82
ExecutionTime = 3.95 s  ClockTime = 29 s

volFieldValue error_velocity_norm write:
    max(region0) of error_velocity_mag = 2.56164230359e-05

volFieldValue L2_error_velocity_norm write:
    sqrt(sum(region0)) of error_velocity_mag_squ = 0.00230796152822

volFieldValue error_pressure_norm write:
    max(region0) of error_pres = 0.000912124738755

Courant Number mean: 0.247591248203 max: 0.305399436041
Time = 0.255

time step continuity errors : sum local = 4.42236808953e-07, global = 9.60030607277e-20, cumulative = 8.80574615689e-19
DICPCG:  Solving for p, Initial residual = 0.332265359533, Final residual = 0.003147014409, No Iterations 35
time step continuity errors : sum local = 6.38747521091e-07, global = 1.09655255954e-19, cumulative = 9.90229871644e-19
DICPCG:  Solving for p, Initial residual = 0.00474375638572, Final residual = 4.24077961488e-05, No Iterations 82
time step continuity errors : sum local = 2.26651269101e-07, global = -3.52729985108e-20, cumulative = 9.54956873133e-19
DICPCG:  Solving for p, Initial residual = 0.332273915843, Final residual = 0.00318167125652, No Iterations 35
time step continuity errors : sum local = 7.32810763669e-07, global = 7.06103638071e-20, cumulative = 1.02556723694e-18
DICPCG:  Solving for p, Initial residual = 0.00238595587491, Final residual = 2.10119419566e-05, No Iterations 82
ExecutionTime = 4.19 s  ClockTime = 29 s

volFieldValue error_velocity_norm write:
    max(region0) of error_velocity_mag = 2.56164230359e-05

volFieldValue L2_error_velocity_norm write:
    sqrt(sum(region0)) of error_velocity_mag_squ = 0.00230796152822

volFieldValue error_pressure_norm write:
    max(region0) of error_pres = 0.000912124738755

Courant Number mean: 0.247591181171 max: 0.305399774004
Time = 0.27

time step continuity errors : sum local = 4.42233593858e-07, global = -8.55434580671e-21, cumulative = 1.01701289113e-18
DICPCG:  Solving for p, Initial residual = 0.332265352061, Final residual = 0.00314699240141, No Iterations 35
time step continuity errors : sum local = 6.38748315884e-07, global = 5.64432342958e-20, cumulative = 1.07345612543e-18
DICPCG:  Solving for p, Initial residual = 0.00474372067524, Final residual = 4.24133332517e-05, No Iterations 82
time step continuity errors : sum local = 2.26655150244e-07, global = -7.1022311235e-20, cumulative = 1.00243381419e-18
DICPCG:  Solving for p, Initial residual = 0.332273910442, Final residual = 0.00318165556373, No Iterations 35
time step continuity errors : sum local = 7.32803313404e-07, global = 4.92920844152e-20, cumulative = 1.05172589861e-18
DICPCG:  Solving for p, Initial residual = 0.00238594326613, Final residual = 2.100638334e-05, No Iterations 82
ExecutionTime = 4.43 s  ClockTime = 30 s

volFieldValue error_velocity_norm write:
    max(region0) of error_velocity_mag = 2.56164230359e-05

volFieldValue L2_error_velocity_norm write:
    sqrt(sum(region0)) of error_velocity_mag_squ = 0.00230796152822

volFieldValue error_pressure_norm write:
    max(region0) of error_pres = 0.000912124738755

Courant Number mean: 0.247591114205 max: 0.305399966067
Time = 0.285

time step continuity errors : sum local = 4.42229474919e-07, global = 5.74473561512e-20, cumulative = 1.10917325476e-18
DICPCG:  Solving for p, Initial residual = 0.33226534766, Final residual = 0.0031469919316, No Iterations 35
time step continuity errors : sum local = 6.387556587e-07, global = 3.11792709464e-20, cumulative = 1.14035252571e-18
DICPCG:  Solving for p, Initial residual = 0.00474372305847, Final residual = 4.24029359864e-05, No Iterations 82
time step continuity errors : sum local = 2.26656999399e-07, global = -1.0314777393e-19, cumulative = 1.03720475178e-18
DICPCG:  Solving for p, Initial residual = 0.332273904431, Final residual = 0.00318164631496, No Iterations 35
time step continuity errors : sum local = 7.32795868258e-07, global = 2.79287482734e-20, cumulative = 1.06513350005e-18
DICPCG:  Solving for p, Initial residual = 0.00238593568697, Final residual = 2.10063999845e-05, No Iterations 82
ExecutionTime = 4.68 s  ClockTime = 30 s

volFieldValue error_velocity_norm write:
    max(region0) of error_velocity_mag = 2.56164230359e-05

volFieldValue L2_error_velocity_norm write:
    sqrt(sum(region0)) of error_velocity_mag_squ = 0.00230796152822

volFieldValue error_pressure_norm write:
    max(region0) of error_pres = 0.000912124738755

Courant Number mean: 0.247591047366 max: 0.305400014347
Time = 0.3

time step continuity errors : sum local = 4.4222353931e-07, global = 8.75645751351e-20, cumulative = 1.15269807519e-18
DICPCG:  Solving for p, Initial residual = 0.332265347149, Final residual = 0.00314698429859, No Iterations 35
time step continuity errors : sum local = 6.38761439547e-07, global = -2.76519710953e-20, cumulative = 1.12504610409e-18
DICPCG:  Solving for p, Initial residual = 0.00474371407088, Final residual = 4.24025388746e-05, No Iterations 82
time step continuity errors : sum local = 2.26655831268e-07, global = -1.44989402911e-19, cumulative = 9.80056701179e-19
DICPCG:  Solving for p, Initial residual = 0.332273898378, Final residual = 0.00318163907981, No Iterations 35
time step continuity errors : sum local = 7.32790215134e-07, global = -9.89961162583e-21, cumulative = 9.70157089553e-19
DICPCG:  Solving for p, Initial residual = 0.00238592958158, Final residual = 2.08951939337e-05, No Iterations 82
ExecutionTime = 4.92 s  ClockTime = 30 s

volFieldValue error_velocity_norm write:
    max(region0) of error_velocity_mag = 2.56164230359e-05

volFieldValue L2_error_velocity_norm write:
    sqrt(sum(region0)) of error_velocity_mag_squ = 0.00230796152822

volFieldValue error_pressure_norm write:
    max(region0) of error_pres = 0.000912124738755

End

