/*---------------------------------------------------------------------------*\
| =========                 |                                                 |
| \\      /  F ield         | OpenFOAM: The Open Source CFD Toolbox           |
|  \\    /   O peration     | Version:  2406                                  |
|   \\  /    A nd           | Website:  www.openfoam.com                      |
|    \\/     M anipulation  |                                                 |
\*---------------------------------------------------------------------------*/
Build  : _630d60de3b-20240620 OPENFOAM=2406 version=v2406
Arch   : "LSB;label=32;scalar=64"
Exec   : pimpleFoam
Date   : Sep 05 2024
Time   : 21:15:36
Host   : hakan-X556UQK
PID    : 35831
I/O    : uncollated
Case   : /home/hakan/courses/testSimulation/tgv2dTests/tgv2d_temporal/pimple/pimple_nu1/TGV_temporal
nProcs : 1
trapFpe: Floating point exception trapping enabled (FOAM_SIGFPE).
fileModificationChecking : Monitoring run-time modified files using timeStampMaster (fileModificationSkew 5, maxFileModificationPolls 20)
allowSystemOperations : Allowing user-supplied system call operations

// * * * * * * * * * * * * * * * * * * * * * * * * * * * * * * * * * * * * * //
Create time

Create mesh for time = 0


PIMPLE: Operating solver in PISO mode

Reading field p

Using #codeStream at line 19 in file "0/p"
Using #codeStream with "/home/hakan/courses/testSimulation/tgv2dTests/tgv2d_temporal/pimple/pimple_nu1/TGV_temporal/dynamicCode/platforms/linux64GccDPInt32Opt/lib/libcodeStream_537564b8bd232f4ddf4797bc6f60eef024868c2e.so"
Creating new library in "dynamicCode/_537564b8bd232f4ddf4797bc6f60eef024868c2e/platforms/linux64GccDPInt32Opt/lib/libcodeStream_537564b8bd232f4ddf4797bc6f60eef024868c2e.so"
Invoking wmake libso /home/hakan/courses/testSimulation/tgv2dTests/tgv2d_temporal/pimple/pimple_nu1/TGV_temporal/dynamicCode/_537564b8bd232f4ddf4797bc6f60eef024868c2e
wmake libso /home/hakan/courses/testSimulation/tgv2dTests/tgv2d_temporal/pimple/pimple_nu1/TGV_temporal/dynamicCode/_537564b8bd232f4ddf4797bc6f60eef024868c2e
    dep: codeStreamTemplate.C
    Ctoo: codeStreamTemplate.C
    link: /home/hakan/courses/testSimulation/tgv2dTests/tgv2d_temporal/pimple/pimple_nu1/TGV_temporal/dynamicCode/_537564b8bd232f4ddf4797bc6f60eef024868c2e/../platforms/linux64GccDPInt32Opt/lib/libcodeStream_537564b8bd232f4ddf4797bc6f60eef024868c2e.so
Reading field U

Using #codeStream at line 19 in file "0/U"
Using #codeStream with "/home/hakan/courses/testSimulation/tgv2dTests/tgv2d_temporal/pimple/pimple_nu1/TGV_temporal/dynamicCode/platforms/linux64GccDPInt32Opt/lib/libcodeStream_18dd48bdf5aea29696d9cbfe8eb27bc690b7dc03.so"
Creating new library in "dynamicCode/_18dd48bdf5aea29696d9cbfe8eb27bc690b7dc03/platforms/linux64GccDPInt32Opt/lib/libcodeStream_18dd48bdf5aea29696d9cbfe8eb27bc690b7dc03.so"
Invoking wmake libso /home/hakan/courses/testSimulation/tgv2dTests/tgv2d_temporal/pimple/pimple_nu1/TGV_temporal/dynamicCode/_18dd48bdf5aea29696d9cbfe8eb27bc690b7dc03
wmake libso /home/hakan/courses/testSimulation/tgv2dTests/tgv2d_temporal/pimple/pimple_nu1/TGV_temporal/dynamicCode/_18dd48bdf5aea29696d9cbfe8eb27bc690b7dc03
    dep: codeStreamTemplate.C
    Ctoo: codeStreamTemplate.C
    link: /home/hakan/courses/testSimulation/tgv2dTests/tgv2d_temporal/pimple/pimple_nu1/TGV_temporal/dynamicCode/_18dd48bdf5aea29696d9cbfe8eb27bc690b7dc03/../platforms/linux64GccDPInt32Opt/lib/libcodeStream_18dd48bdf5aea29696d9cbfe8eb27bc690b7dc03.so
Reading/calculating face flux field phi

Selecting incompressible transport model Newtonian
Selecting turbulence model type laminar
Selecting laminar stress model Stokes
No MRF models present

No finite volume options present
Courant Number mean: 0.247592318611 max: 0.305393450017
Courant Number mean: 0.247592318611 max: 0.305393450017

Starting time loop

Using dynamicCode for functionObject diff at line 51 in "/home/hakan/courses/testSimulation/tgv2dTests/tgv2d_temporal/pimple/pimple_nu1/TGV_temporal/system/controlDict/functions/diff"
Creating new library in "dynamicCode/diff/platforms/linux64GccDPInt32Opt/lib/libdiff_d924c92ec3fe0b16fec6b8892a9fc1c20fa93dd8.so"
Invoking wmake libso /home/hakan/courses/testSimulation/tgv2dTests/tgv2d_temporal/pimple/pimple_nu1/TGV_temporal/dynamicCode/diff
wmake libso /home/hakan/courses/testSimulation/tgv2dTests/tgv2d_temporal/pimple/pimple_nu1/TGV_temporal/dynamicCode/diff
    dep: functionObjectTemplate.C
    Ctoo: functionObjectTemplate.C
    link: /home/hakan/courses/testSimulation/tgv2dTests/tgv2d_temporal/pimple/pimple_nu1/TGV_temporal/dynamicCode/diff/../platforms/linux64GccDPInt32Opt/lib/libdiff_d924c92ec3fe0b16fec6b8892a9fc1c20fa93dd8.so
Courant Number mean: 0.247592318611 max: 0.305393450017
Time = 0.015

PIMPLE: iteration 1
DILUPBiCGStab:  Solving for Ux, Initial residual = 0.0147754017645, Final residual = 9.17208951545e-09, No Iterations 11
DILUPBiCGStab:  Solving for Uy, Initial residual = 0.0147754017645, Final residual = 9.51743897745e-09, No Iterations 11
DICPCG:  Solving for p, Initial residual = 0.536029319046, Final residual = 0.00503346180729, No Iterations 35
time step continuity errors : sum local = 4.71900157605e-08, global = 1.39917300206e-21, cumulative = 1.39917300206e-21
DICPCG:  Solving for p, Initial residual = 0.525141751142, Final residual = 0.00509558593273, No Iterations 35
time step continuity errors : sum local = 4.62380651605e-08, global = 3.34059594358e-20, cumulative = 3.48051324379e-20
DICPCG:  Solving for p, Initial residual = 0.00626036048358, Final residual = 6.16071704033e-05, No Iterations 50
time step continuity errors : sum local = 1.05227665202e-09, global = -4.53733163343e-20, cumulative = -1.05681838964e-20
DICPCG:  Solving for p, Initial residual = 0.00151147664718, Final residual = 8.93687316741e-13, No Iterations 203
time step continuity errors : sum local = 2.14406386557e-17, global = 1.13221984316e-20, cumulative = 7.54014535275e-22
ExecutionTime = 0.73 s  ClockTime = 46 s

    Reading error_velocity_mag (volScalarField)
    Reading error_velocity_mag_squ (volScalarField)
    Reading error_pres (volScalarField)
volFieldValue error_velocity_norm write:
    max(region0) of error_velocity_mag = 0.000436138851454

volFieldValue L2_error_velocity_norm write:
    sqrt(sum(region0)) of error_velocity_mag_squ = 0.0395099563306

volFieldValue error_pressure_norm write:
    max(region0) of error_pres = 0.0153909846908

Courant Number mean: 0.240382978013 max: 0.296501165501
Time = 0.03

PIMPLE: iteration 1
DILUPBiCGStab:  Solving for Ux, Initial residual = 0.0149962513676, Final residual = 5.2899135719e-09, No Iterations 8
DILUPBiCGStab:  Solving for Uy, Initial residual = 0.0149962345024, Final residual = 5.46063142597e-09, No Iterations 8
DICPCG:  Solving for p, Initial residual = 0.601250899199, Final residual = 0.00571557861784, No Iterations 35
time step continuity errors : sum local = 4.70852309365e-08, global = 2.50853455193e-20, cumulative = 2.58393600546e-20
DICPCG:  Solving for p, Initial residual = 0.581541712944, Final residual = 0.00563929605954, No Iterations 35
time step continuity errors : sum local = 4.43346636294e-08, global = -5.90162965503e-21, cumulative = 1.99377303996e-20
DICPCG:  Solving for p, Initial residual = 0.00665906977135, Final residual = 6.19244121034e-05, No Iterations 46
time step continuity errors : sum local = 7.84952882796e-10, global = 1.19399419278e-19, cumulative = 1.39337149678e-19
DICPCG:  Solving for p, Initial residual = 0.00153601143492, Final residual = 8.01932132689e-13, No Iterations 203
time step continuity errors : sum local = 1.96097758794e-17, global = -8.92700901427e-20, cumulative = 5.00670595354e-20
ExecutionTime = 1.43 s  ClockTime = 47 s

volFieldValue error_velocity_norm write:
    max(region0) of error_velocity_mag = 0.000436138851454

volFieldValue L2_error_velocity_norm write:
    sqrt(sum(region0)) of error_velocity_mag_squ = 0.0395099563306

volFieldValue error_pressure_norm write:
    max(region0) of error_pres = 0.0153909846908

Courant Number mean: 0.233548109878 max: 0.288070759419
Time = 0.045

PIMPLE: iteration 1
DILUPBiCGStab:  Solving for Ux, Initial residual = 0.0149963452159, Final residual = 5.26645232097e-09, No Iterations 8
DILUPBiCGStab:  Solving for Uy, Initial residual = 0.0149963427102, Final residual = 5.43665841652e-09, No Iterations 8
DICPCG:  Solving for p, Initial residual = 0.595880448934, Final residual = 0.00561658990991, No Iterations 35
time step continuity errors : sum local = 4.47210143019e-08, global = 6.898248757e-20, cumulative = 1.19049547105e-19
DICPCG:  Solving for p, Initial residual = 0.576075679085, Final residual = 0.00559446513734, No Iterations 35
time step continuity errors : sum local = 4.20850310587e-08, global = -2.65521036463e-20, cumulative = 9.24974434591e-20
DICPCG:  Solving for p, Initial residual = 0.00661822684049, Final residual = 6.1343143291e-05, No Iterations 84
time step continuity errors : sum local = 7.18978012523e-10, global = 3.81330398274e-20, cumulative = 1.30630483286e-19
DICPCG:  Solving for p, Initial residual = 0.00156497266702, Final residual = 9.61733608413e-13, No Iterations 203
time step continuity errors : sum local = 1.97310250091e-17, global = -9.18043822519e-20, cumulative = 3.88261010346e-20
ExecutionTime = 2.16 s  ClockTime = 48 s

volFieldValue error_velocity_norm write:
    max(region0) of error_velocity_mag = 0.000436138851454

volFieldValue L2_error_velocity_norm write:
    sqrt(sum(region0)) of error_velocity_mag_squ = 0.0395099563306

volFieldValue error_pressure_norm write:
    max(region0) of error_pres = 0.0153909846908

Courant Number mean: 0.226159179552 max: 0.278956933243
Time = 0.06

PIMPLE: iteration 1
DILUPBiCGStab:  Solving for Ux, Initial residual = 0.0149963978042, Final residual = 5.24073628949e-09, No Iterations 8
DILUPBiCGStab:  Solving for Uy, Initial residual = 0.0149963958806, Final residual = 5.40977666499e-09, No Iterations 8
DICPCG:  Solving for p, Initial residual = 0.643713293112, Final residual = 0.0060756340046, No Iterations 35
time step continuity errors : sum local = 4.41576069821e-08, global = 6.55219682589e-20, cumulative = 1.04348069294e-19
DICPCG:  Solving for p, Initial residual = 0.624729948775, Final residual = 0.0060677575358, No Iterations 35
time step continuity errors : sum local = 4.1554493278e-08, global = 1.10481765711e-19, cumulative = 2.14829835004e-19
DICPCG:  Solving for p, Initial residual = 0.00695623299154, Final residual = 6.29202462867e-05, No Iterations 84
time step continuity errors : sum local = 6.92773537352e-10, global = -6.94664296247e-20, cumulative = 1.45363405379e-19
DICPCG:  Solving for p, Initial residual = 0.00163894814035, Final residual = 8.09768505624e-13, No Iterations 204
time step continuity errors : sum local = 1.78377365152e-17, global = 5.37732978608e-20, cumulative = 1.9913670324e-19
ExecutionTime = 2.9 s  ClockTime = 49 s

volFieldValue error_velocity_norm write:
    max(region0) of error_velocity_mag = 0.000436138851454

volFieldValue L2_error_velocity_norm write:
    sqrt(sum(region0)) of error_velocity_mag_squ = 0.0395099563306

volFieldValue error_pressure_norm write:
    max(region0) of error_pres = 0.0153909846908

Courant Number mean: 0.219891741114 max: 0.271226387572
Time = 0.075

PIMPLE: iteration 1
DILUPBiCGStab:  Solving for Ux, Initial residual = 0.0149964111818, Final residual = 5.2228605961e-09, No Iterations 8
DILUPBiCGStab:  Solving for Uy, Initial residual = 0.0149964088821, Final residual = 5.38356990479e-09, No Iterations 8
DICPCG:  Solving for p, Initial residual = 0.583839126298, Final residual = 0.00551419053035, No Iterations 35
time step continuity errors : sum local = 3.90793016593e-08, global = 1.20562308348e-19, cumulative = 3.19699011588e-19
DICPCG:  Solving for p, Initial residual = 0.56390418098, Final residual = 0.00547719766433, No Iterations 35
time step continuity errors : sum local = 3.67563889911e-08, global = 1.17507852938e-19, cumulative = 4.37206864526e-19
DICPCG:  Solving for p, Initial residual = 0.00652608943327, Final residual = 5.8719617572e-05, No Iterations 84
time step continuity errors : sum local = 6.09965349082e-10, global = 9.28508168333e-22, cumulative = 4.38135372695e-19
DICPCG:  Solving for p, Initial residual = 0.00153571790278, Final residual = 9.52025922292e-13, No Iterations 203
time step continuity errors : sum local = 1.78988881933e-17, global = -4.63432455263e-20, cumulative = 3.91792127168e-19
ExecutionTime = 3.65 s  ClockTime = 49 s

volFieldValue error_velocity_norm write:
    max(region0) of error_velocity_mag = 0.000436138851454

volFieldValue L2_error_velocity_norm write:
    sqrt(sum(region0)) of error_velocity_mag_squ = 0.0395099563306

volFieldValue error_pressure_norm write:
    max(region0) of error_pres = 0.0153909846908

Courant Number mean: 0.213040648601 max: 0.262775928642
Time = 0.09

PIMPLE: iteration 1
DILUPBiCGStab:  Solving for Ux, Initial residual = 0.014996485622, Final residual = 5.20179753093e-09, No Iterations 8
DILUPBiCGStab:  Solving for Uy, Initial residual = 0.014996483979, Final residual = 5.36041741724e-09, No Iterations 8
DICPCG:  Solving for p, Initial residual = 0.635981228717, Final residual = 0.00599637316813, No Iterations 35
time step continuity errors : sum local = 3.88269872977e-08, global = 4.49694524695e-20, cumulative = 4.36761579638e-19
DICPCG:  Solving for p, Initial residual = 0.616845686371, Final residual = 0.00599205734191, No Iterations 35
time step continuity errors : sum local = 3.6581704066e-08, global = 3.40142758463e-20, cumulative = 4.70775855484e-19
DICPCG:  Solving for p, Initial residual = 0.00690238193291, Final residual = 6.20430554218e-05, No Iterations 84
time step continuity errors : sum local = 6.0600466986e-10, global = -1.02656593755e-19, cumulative = 3.6811926173e-19
DICPCG:  Solving for p, Initial residual = 0.00162662903412, Final residual = 8.04108432418e-13, No Iterations 204
time step continuity errors : sum local = 1.60652739714e-17, global = 5.27782714258e-20, cumulative = 4.20897533156e-19
ExecutionTime = 4.37 s  ClockTime = 50 s

volFieldValue error_velocity_norm write:
    max(region0) of error_velocity_mag = 0.000436138851454

volFieldValue L2_error_velocity_norm write:
    sqrt(sum(region0)) of error_velocity_mag_squ = 0.0395099563306

volFieldValue error_pressure_norm write:
    max(region0) of error_pres = 0.0153909846908

Courant Number mean: 0.207046656814 max: 0.255382642902
Time = 0.105

PIMPLE: iteration 1
DILUPBiCGStab:  Solving for Ux, Initial residual = 0.0149964922598, Final residual = 5.18547376216e-09, No Iterations 8
DILUPBiCGStab:  Solving for Uy, Initial residual = 0.0149964902105, Final residual = 5.33718022389e-09, No Iterations 8
DICPCG:  Solving for p, Initial residual = 0.590195401187, Final residual = 0.0055745714612, No Iterations 35
time step continuity errors : sum local = 3.49083118237e-08, global = 6.84382833694e-20, cumulative = 4.89335816525e-19
DICPCG:  Solving for p, Initial residual = 0.57033740161, Final residual = 0.00553987238792, No Iterations 35
time step continuity errors : sum local = 3.28329614613e-08, global = -9.27055704159e-20, cumulative = 3.96630246109e-19
DICPCG:  Solving for p, Initial residual = 0.00657323107608, Final residual = 5.87907934023e-05, No Iterations 84
time step continuity errors : sum local = 5.41564234619e-10, global = -8.46535118263e-21, cumulative = 3.88164894926e-19
DICPCG:  Solving for p, Initial residual = 0.00154702456797, Final residual = 9.58483345935e-13, No Iterations 203
time step continuity errors : sum local = 1.58927199043e-17, global = 5.43330487822e-20, cumulative = 4.42497943709e-19
ExecutionTime = 5.19 s  ClockTime = 51 s

volFieldValue error_velocity_norm write:
    max(region0) of error_velocity_mag = 0.000436138851454

volFieldValue L2_error_velocity_norm write:
    sqrt(sum(region0)) of error_velocity_mag_squ = 0.0395099563306

volFieldValue error_pressure_norm write:
    max(region0) of error_pres = 0.0153909846908

Courant Number mean: 0.20067226457 max: 0.247520150353
Time = 0.12

PIMPLE: iteration 1
DILUPBiCGStab:  Solving for Ux, Initial residual = 0.014996549605, Final residual = 5.16735356632e-09, No Iterations 8
DILUPBiCGStab:  Solving for Uy, Initial residual = 0.0149965480221, Final residual = 5.31631475936e-09, No Iterations 8
DICPCG:  Solving for p, Initial residual = 0.630124056579, Final residual = 0.0059426690295, No Iterations 35
time step continuity errors : sum local = 3.42428808014e-08, global = 1.25716378132e-22, cumulative = 4.42623660087e-19
DICPCG:  Solving for p, Initial residual = 0.610880435403, Final residual = 0.0059344900197, No Iterations 35
time step continuity errors : sum local = 3.2257418074e-08, global = -4.1827347601e-21, cumulative = 4.38440925327e-19
DICPCG:  Solving for p, Initial residual = 0.00686158194502, Final residual = 6.12928849018e-05, No Iterations 84
time step continuity errors : sum local = 5.31097175564e-10, global = 8.1626901023e-20, cumulative = 5.2006782635e-19
DICPCG:  Solving for p, Initial residual = 0.00161671653621, Final residual = 7.99559587141e-13, No Iterations 204
time step continuity errors : sum local = 1.38505536587e-17, global = 8.20092332509e-20, cumulative = 6.02077059601e-19
ExecutionTime = 5.95 s  ClockTime = 52 s

volFieldValue error_velocity_norm write:
    max(region0) of error_velocity_mag = 0.000436138851454

volFieldValue L2_error_velocity_norm write:
    sqrt(sum(region0)) of error_velocity_mag_squ = 0.0395099563306

volFieldValue error_pressure_norm write:
    max(region0) of error_pres = 0.0153909846908

Courant Number mean: 0.19496090875 max: 0.240475468113
Time = 0.135

PIMPLE: iteration 1
DILUPBiCGStab:  Solving for Ux, Initial residual = 0.0149965603691, Final residual = 5.15268059589e-09, No Iterations 8
DILUPBiCGStab:  Solving for Uy, Initial residual = 0.0149965585376, Final residual = 5.29560221961e-09, No Iterations 8
DICPCG:  Solving for p, Initial residual = 0.595103194121, Final residual = 0.00562043007638, No Iterations 35
time step continuity errors : sum local = 3.11257255314e-08, global = 1.97243968634e-20, cumulative = 6.21801456464e-19
DICPCG:  Solving for p, Initial residual = 0.575309693405, Final residual = 0.00558860543987, No Iterations 35
time step continuity errors : sum local = 2.92803027909e-08, global = 1.84837765717e-20, cumulative = 6.40285233036e-19
DICPCG:  Solving for p, Initial residual = 0.0066096025017, Final residual = 5.87767865337e-05, No Iterations 84
time step continuity errors : sum local = 4.80156713553e-10, global = 2.84590938147e-20, cumulative = 6.6874432685e-19
DICPCG:  Solving for p, Initial residual = 0.00155578844616, Final residual = 9.63264860448e-13, No Iterations 203
time step continuity errors : sum local = 1.42143798734e-17, global = -2.14782087212e-21, cumulative = 6.66596505978e-19
ExecutionTime = 6.74 s  ClockTime = 53 s

volFieldValue error_velocity_norm write:
    max(region0) of error_velocity_mag = 0.000436138851454

volFieldValue L2_error_velocity_norm write:
    sqrt(sum(region0)) of error_velocity_mag_squ = 0.0395099563306

volFieldValue error_pressure_norm write:
    max(region0) of error_pres = 0.0153909846908

Courant Number mean: 0.189014095246 max: 0.233140360031
Time = 0.15

PIMPLE: iteration 1
DILUPBiCGStab:  Solving for Ux, Initial residual = 0.0149966051925, Final residual = 5.13705074127e-09, No Iterations 8
DILUPBiCGStab:  Solving for Uy, Initial residual = 0.0149966036821, Final residual = 5.27679965039e-09, No Iterations 8
DICPCG:  Solving for p, Initial residual = 0.625661153808, Final residual = 0.00590200492813, No Iterations 35
time step continuity errors : sum local = 3.02403641542e-08, global = 3.28606520741e-20, cumulative = 6.99457158052e-19
DICPCG:  Solving for p, Initial residual = 0.606339471241, Final residual = 0.00589064169151, No Iterations 35
time step continuity errors : sum local = 2.84821725399e-08, global = 8.98494954509e-21, cumulative = 7.08442107597e-19
DICPCG:  Solving for p, Initial residual = 0.0068302910347, Final residual = 6.06494188226e-05, No Iterations 84
time step continuity errors : sum local = 4.66178850434e-10, global = 2.21563644838e-20, cumulative = 7.30598472081e-19
DICPCG:  Solving for p, Initial residual = 0.00160910450795, Final residual = 9.95167316296e-13, No Iterations 203
time step continuity errors : sum local = 1.38857502398e-17, global = -9.99378672229e-21, cumulative = 7.20604685359e-19
ExecutionTime = 7.55 s  ClockTime = 54 s

volFieldValue error_velocity_norm write:
    max(region0) of error_velocity_mag = 0.000436138851454

volFieldValue L2_error_velocity_norm write:
    sqrt(sum(region0)) of error_velocity_mag_squ = 0.0395099563306

volFieldValue error_pressure_norm write:
    max(region0) of error_pres = 0.0153909846908

Courant Number mean: 0.183587145436 max: 0.226446469918
Time = 0.165

PIMPLE: iteration 1
DILUPBiCGStab:  Solving for Ux, Initial residual = 0.0149966179314, Final residual = 5.12391175275e-09, No Iterations 8
DILUPBiCGStab:  Solving for Uy, Initial residual = 0.0149966162789, Final residual = 5.2583620227e-09, No Iterations 8
DICPCG:  Solving for p, Initial residual = 0.598885020872, Final residual = 0.00565582960802, No Iterations 35
time step continuity errors : sum local = 2.77184138538e-08, global = -3.98579753943e-20, cumulative = 6.80746709965e-19
DICPCG:  Solving for p, Initial residual = 0.579144473419, Final residual = 0.00562623296279, No Iterations 35
time step continuity errors : sum local = 2.6078418874e-08, global = 9.34441792807e-20, cumulative = 7.74190889245e-19
DICPCG:  Solving for p, Initial residual = 0.00663754807795, Final residual = 5.86968737181e-05, No Iterations 84
time step continuity errors : sum local = 4.25249021228e-10, global = -3.65387864356e-20, cumulative = 7.3765210281e-19
DICPCG:  Solving for p, Initial residual = 0.00156251279135, Final residual = 9.66657593289e-13, No Iterations 203
time step continuity errors : sum local = 1.33013559707e-17, global = 1.85445864616e-20, cumulative = 7.56196689271e-19
ExecutionTime = 8.17 s  ClockTime = 55 s

volFieldValue error_velocity_norm write:
    max(region0) of error_velocity_mag = 0.000436138851454

volFieldValue L2_error_velocity_norm write:
    sqrt(sum(region0)) of error_velocity_mag_squ = 0.0395099563306

volFieldValue error_pressure_norm write:
    max(region0) of error_pres = 0.0153909846908

Courant Number mean: 0.178027508419 max: 0.219588917061
Time = 0.18

PIMPLE: iteration 1
DILUPBiCGStab:  Solving for Ux, Initial residual = 0.014996653466, Final residual = 5.11034968151e-09, No Iterations 8
DILUPBiCGStab:  Solving for Uy, Initial residual = 0.014996652036, Final residual = 5.24151633467e-09, No Iterations 8
DICPCG:  Solving for p, Initial residual = 0.622257695464, Final residual = 0.00587105265373, No Iterations 35
time step continuity errors : sum local = 2.673249404e-08, global = -5.76560453389e-21, cumulative = 7.50431084737e-19
DICPCG:  Solving for p, Initial residual = 0.602879183155, Final residual = 0.00585723993787, No Iterations 35
time step continuity errors : sum local = 2.51748499071e-08, global = 6.54031411383e-20, cumulative = 8.15834225876e-19
DICPCG:  Solving for p, Initial residual = 0.00680636226059, Final residual = 6.00924159684e-05, No Iterations 84
time step continuity errors : sum local = 4.0972509197e-10, global = 6.32677808832e-20, cumulative = 8.79102006759e-19
DICPCG:  Solving for p, Initial residual = 0.00160328012986, Final residual = 9.90857205196e-13, No Iterations 203
time step continuity errors : sum local = 1.29187102594e-17, global = 1.67541446418e-20, cumulative = 8.95856151401e-19
ExecutionTime = 8.91 s  ClockTime = 55 s

volFieldValue error_velocity_norm write:
    max(region0) of error_velocity_mag = 0.000436138851454

volFieldValue L2_error_velocity_norm write:
    sqrt(sum(region0)) of error_velocity_mag_squ = 0.0395099563306

volFieldValue error_pressure_norm write:
    max(region0) of error_pres = 0.0153909846908

Courant Number mean: 0.17288163262 max: 0.213241712918
Time = 0.195

PIMPLE: iteration 1
DILUPBiCGStab:  Solving for Ux, Initial residual = 0.0149966668366, Final residual = 5.09865506953e-09, No Iterations 8
DILUPBiCGStab:  Solving for Uy, Initial residual = 0.0149966653338, Final residual = 5.22512700285e-09, No Iterations 8
DICPCG:  Solving for p, Initial residual = 0.601794313613, Final residual = 0.0056831866026, No Iterations 35
time step continuity errors : sum local = 2.46609256755e-08, global = -1.58167295386e-20, cumulative = 8.80039421862e-19
DICPCG:  Solving for p, Initial residual = 0.582096680276, Final residual = 0.00565522407269, No Iterations 35
time step continuity errors : sum local = 2.32038123858e-08, global = 4.86591275946e-20, cumulative = 9.28698549457e-19
DICPCG:  Solving for p, Initial residual = 0.00665902293453, Final residual = 5.85715053079e-05, No Iterations 84
time step continuity errors : sum local = 3.76337040092e-10, global = 3.50479190503e-20, cumulative = 9.63746468507e-19
DICPCG:  Solving for p, Initial residual = 0.00156766605393, Final residual = 9.68963968081e-13, No Iterations 203
time step continuity errors : sum local = 1.24087594095e-17, global = 1.34876965673e-20, cumulative = 9.77234165074e-19
ExecutionTime = 9.68 s  ClockTime = 56 s

volFieldValue error_velocity_norm write:
    max(region0) of error_velocity_mag = 0.000436138851454

volFieldValue L2_error_velocity_norm write:
    sqrt(sum(region0)) of error_velocity_mag_squ = 0.0395099563306

volFieldValue error_pressure_norm write:
    max(region0) of error_pres = 0.0153909846908

Courant Number mean: 0.167675378643 max: 0.206820036129
Time = 0.21

PIMPLE: iteration 1
DILUPBiCGStab:  Solving for Ux, Initial residual = 0.0149966953937, Final residual = 5.08691017073e-09, No Iterations 8
DILUPBiCGStab:  Solving for Uy, Initial residual = 0.0149966940471, Final residual = 5.20998561555e-09, No Iterations 8
DICPCG:  Solving for p, Initial residual = 0.61966073877, Final residual = 0.00584747727994, No Iterations 35
time step continuity errors : sum local = 2.36498018102e-08, global = 4.12004754531e-20, cumulative = 1.01843464053e-18
DICPCG:  Solving for p, Initial residual = 0.600240656194, Final residual = 0.00583178661569, No Iterations 35
time step continuity errors : sum local = 2.2269426023e-08, global = 8.5236207239e-21, cumulative = 1.02695826125e-18
DICPCG:  Solving for p, Initial residual = 0.00678806380532, Final residual = 5.96065440994e-05, No Iterations 84
time step continuity errors : sum local = 3.60497395608e-10, global = 5.8512101587e-20, cumulative = 1.08547036284e-18
DICPCG:  Solving for p, Initial residual = 0.00159882661347, Final residual = 9.87265190415e-13, No Iterations 203
time step continuity errors : sum local = 1.20618184649e-17, global = -2.81208980535e-20, cumulative = 1.05734946478e-18
ExecutionTime = 10.43 s  ClockTime = 57 s

volFieldValue error_velocity_norm write:
    max(region0) of error_velocity_mag = 0.000436138851454

volFieldValue L2_error_velocity_norm write:
    sqrt(sum(region0)) of error_velocity_mag_squ = 0.0395099563306

volFieldValue error_pressure_norm write:
    max(region0) of error_pres = 0.0153909846908

Courant Number mean: 0.162803808101 max: 0.200811171538
Time = 0.225

PIMPLE: iteration 1
DILUPBiCGStab:  Solving for Ux, Initial residual = 0.0149967085835, Final residual = 5.07661243973e-09, No Iterations 8
DILUPBiCGStab:  Solving for Uy, Initial residual = 0.0149967072085, Final residual = 5.19535534067e-09, No Iterations 8
DICPCG:  Solving for p, Initial residual = 0.604029273661, Final residual = 0.0057043054729, No Iterations 35
time step continuity errors : sum local = 2.19249057768e-08, global = 5.61033977824e-20, cumulative = 1.11345286257e-18
DICPCG:  Solving for p, Initial residual = 0.584366071066, Final residual = 0.00567753678802, No Iterations 35
time step continuity errors : sum local = 2.06305910737e-08, global = -4.32360247613e-20, cumulative = 1.07021683781e-18
DICPCG:  Solving for p, Initial residual = 0.0066755095971, Final residual = 5.84173567694e-05, No Iterations 84
time step continuity errors : sum local = 3.32891688321e-10, global = 1.86963173949e-20, cumulative = 1.0889131552e-18
DICPCG:  Solving for p, Initial residual = 0.00157161385064, Final residual = 9.70418191529e-13, No Iterations 203
time step continuity errors : sum local = 1.20529076189e-17, global = 4.95040599322e-20, cumulative = 1.13841721513e-18
ExecutionTime = 11.18 s  ClockTime = 58 s

volFieldValue error_velocity_norm write:
    max(region0) of error_velocity_mag = 0.000436138851454

volFieldValue L2_error_velocity_norm write:
    sqrt(sum(region0)) of error_velocity_mag_squ = 0.0395099563306

volFieldValue error_pressure_norm write:
    max(region0) of error_pres = 0.0153909846908

Courant Number mean: 0.157922201627 max: 0.194789929247
Time = 0.24

PIMPLE: iteration 1
DILUPBiCGStab:  Solving for Ux, Initial residual = 0.0149967318292, Final residual = 5.06640850547e-09, No Iterations 8
DILUPBiCGStab:  Solving for Uy, Initial residual = 0.0149967305655, Final residual = 5.18179128399e-09, No Iterations 8
DICPCG:  Solving for p, Initial residual = 0.617678540734, Final residual = 0.00582951953194, No Iterations 35
time step continuity errors : sum local = 2.09350450969e-08, global = 4.43989515456e-20, cumulative = 1.18281616668e-18
DICPCG:  Solving for p, Initial residual = 0.598227910022, Final residual = 0.00581238996671, No Iterations 35
time step continuity errors : sum local = 1.97115142957e-08, global = -6.13514028442e-20, cumulative = 1.12146476383e-18
DICPCG:  Solving for p, Initial residual = 0.00677407922312, Final residual = 5.91797874586e-05, No Iterations 84
time step continuity errors : sum local = 3.17473710892e-10, global = -1.14784418181e-19, cumulative = 1.00668034565e-18
DICPCG:  Solving for p, Initial residual = 0.00159542299887, Final residual = 9.84209191396e-13, No Iterations 203
time step continuity errors : sum local = 1.16650006503e-17, global = 1.18250375978e-20, cumulative = 1.01850538325e-18
ExecutionTime = 11.95 s  ClockTime = 58 s

volFieldValue error_velocity_norm write:
    max(region0) of error_velocity_mag = 0.000436138851454

volFieldValue L2_error_velocity_norm write:
    sqrt(sum(region0)) of error_velocity_mag_squ = 0.0395099563306

volFieldValue error_pressure_norm write:
    max(region0) of error_pres = 0.0153909846908

Courant Number mean: 0.153315925952 max: 0.189108291995
Time = 0.255

PIMPLE: iteration 1
DILUPBiCGStab:  Solving for Ux, Initial residual = 0.014996744371, Final residual = 5.0572540095e-09, No Iterations 8
DILUPBiCGStab:  Solving for Uy, Initial residual = 0.0149967431065, Final residual = 5.16880488206e-09, No Iterations 8
DICPCG:  Solving for p, Initial residual = 0.605744201917, Final residual = 0.00572060327866, No Iterations 35
time step continuity errors : sum local = 1.9481696392e-08, global = 4.71909614442e-20, cumulative = 1.0656963447e-18
DICPCG:  Solving for p, Initial residual = 0.586108396863, Final residual = 0.00569469266867, No Iterations 35
time step continuity errors : sum local = 1.83322260119e-08, global = -6.61950537475e-20, cumulative = 9.99501290948e-19
DICPCG:  Solving for p, Initial residual = 0.0066881741217, Final residual = 5.82458741555e-05, No Iterations 84
time step continuity errors : sum local = 2.94376291975e-10, global = -1.44149444645e-19, cumulative = 8.55351846302e-19
DICPCG:  Solving for p, Initial residual = 0.00157463796336, Final residual = 9.71215440969e-13, No Iterations 203
time step continuity errors : sum local = 1.12219496754e-17, global = -1.06240597499e-20, cumulative = 8.44727786553e-19
ExecutionTime = 12.7 s  ClockTime = 59 s

volFieldValue error_velocity_norm write:
    max(region0) of error_velocity_mag = 0.000436138851454

volFieldValue L2_error_velocity_norm write:
    sqrt(sum(region0)) of error_velocity_mag_squ = 0.0395099563306

volFieldValue error_pressure_norm write:
    max(region0) of error_pres = 0.0153909846908

Courant Number mean: 0.148734147254 max: 0.183456871813
Time = 0.27

PIMPLE: iteration 1
DILUPBiCGStab:  Solving for Ux, Initial residual = 0.0149967635171, Final residual = 5.04836445989e-09, No Iterations 8
DILUPBiCGStab:  Solving for Uy, Initial residual = 0.014996762334, Final residual = 5.15671491882e-09, No Iterations 8
DICPCG:  Solving for p, Initial residual = 0.616165368322, Final residual = 0.00581585172579, No Iterations 35
time step continuity errors : sum local = 1.85404160296e-08, global = -3.69926979905e-20, cumulative = 8.07735088562e-19
DICPCG:  Solving for p, Initial residual = 0.596692267273, Final residual = 0.00579760614762, No Iterations 35
time step continuity errors : sum local = 1.74557108999e-08, global = 3.1901536682e-20, cumulative = 8.39636625244e-19
DICPCG:  Solving for p, Initial residual = 0.0067634264533, Final residual = 5.88033223548e-05, No Iterations 84
time step continuity errors : sum local = 2.79804881085e-10, global = 2.67702325625e-20, cumulative = 8.66406857807e-19
DICPCG:  Solving for p, Initial residual = 0.00159282376676, Final residual = 9.81563428623e-13, No Iterations 203
time step continuity errors : sum local = 1.10188090801e-17, global = 8.89348278517e-20, cumulative = 9.55341685658e-19
ExecutionTime = 13.52 s  ClockTime = 60 s

volFieldValue error_velocity_norm write:
    max(region0) of error_velocity_mag = 0.000436138851454

volFieldValue L2_error_velocity_norm write:
    sqrt(sum(region0)) of error_velocity_mag_squ = 0.0395099563306

volFieldValue error_pressure_norm write:
    max(region0) of error_pres = 0.0153909846908

Courant Number mean: 0.144382767967 max: 0.178089636962
Time = 0.285

PIMPLE: iteration 1
DILUPBiCGStab:  Solving for Ux, Initial residual = 0.0149967751655, Final residual = 5.04033182764e-09, No Iterations 8
DILUPBiCGStab:  Solving for Uy, Initial residual = 0.0149967739982, Final residual = 5.14520834087e-09, No Iterations 8
DICPCG:  Solving for p, Initial residual = 0.607058798959, Final residual = 0.00573318455388, No Iterations 35
time step continuity errors : sum local = 1.73034502087e-08, global = 2.15109790278e-20, cumulative = 9.76852664686e-19
DICPCG:  Solving for p, Initial residual = 0.587444773238, Final residual = 0.00570787530978, No Iterations 35
time step continuity errors : sum local = 1.628278282e-08, global = 4.6720329611e-20, cumulative = 1.0235729943e-18
DICPCG:  Solving for p, Initial residual = 0.00669791256935, Final residual = 5.80659211272e-05, No Iterations 84
time step continuity errors : sum local = 2.60279602677e-10, global = 4.17300603981e-20, cumulative = 1.0653030547e-18
DICPCG:  Solving for p, Initial residual = 0.00157695323893, Final residual = 9.71514718428e-13, No Iterations 203
time step continuity errors : sum local = 1.05457736304e-17, global = 3.58680572943e-20, cumulative = 1.10117111199e-18
ExecutionTime = 14.32 s  ClockTime = 61 s

volFieldValue error_velocity_norm write:
    max(region0) of error_velocity_mag = 0.000436138851454

volFieldValue L2_error_velocity_norm write:
    sqrt(sum(region0)) of error_velocity_mag_squ = 0.0395099563306

volFieldValue error_pressure_norm write:
    max(region0) of error_pres = 0.0153909846908

Courant Number mean: 0.140079069449 max: 0.172781215279
Time = 0.3

PIMPLE: iteration 1
DILUPBiCGStab:  Solving for Ux, Initial residual = 0.0149967911031, Final residual = 5.03268460218e-09, No Iterations 8
DILUPBiCGStab:  Solving for Uy, Initial residual = 0.0149967899968, Final residual = 5.13444063242e-09, No Iterations 8
DICPCG:  Solving for p, Initial residual = 0.615010305197, Final residual = 0.00580545019321, No Iterations 35
time step continuity errors : sum local = 1.64254597377e-08, global = 1.14427550241e-20, cumulative = 1.11261386701e-18
DICPCG:  Solving for p, Initial residual = 0.595520709428, Final residual = 0.00578634079462, No Iterations 35
time step continuity errors : sum local = 1.54637122022e-08, global = 1.33866068061e-20, cumulative = 1.12600047382e-18
DICPCG:  Solving for p, Initial residual = 0.00675530606817, Final residual = 5.84695420876e-05, No Iterations 84
time step continuity errors : sum local = 2.4677240014e-10, global = 3.30683465309e-20, cumulative = 1.15906882035e-18
DICPCG:  Solving for p, Initial residual = 0.00159083905472, Final residual = 9.7923831897e-13, No Iterations 203
time step continuity errors : sum local = 1.03168082673e-17, global = -1.23031342951e-20, cumulative = 1.14676568606e-18
ExecutionTime = 15.06 s  ClockTime = 62 s

volFieldValue error_velocity_norm write:
    max(region0) of error_velocity_mag = 0.000436138851454

volFieldValue L2_error_velocity_norm write:
    sqrt(sum(region0)) of error_velocity_mag_squ = 0.0395099563306

volFieldValue error_pressure_norm write:
    max(region0) of error_pres = 0.0153909846908

End

