/*---------------------------------------------------------------------------*\
| =========                 |                                                 |
| \\      /  F ield         | OpenFOAM: The Open Source CFD Toolbox           |
|  \\    /   O peration     | Version:  2406                                  |
|   \\  /    A nd           | Website:  www.openfoam.com                      |
|    \\/     M anipulation  |                                                 |
\*---------------------------------------------------------------------------*/
Build  : _630d60de3b-20240620 OPENFOAM=2406 version=v2406
Arch   : "LSB;label=32;scalar=64"
Exec   : pimpleFoam
Date   : Sep 07 2024
Time   : 22:04:27
Host   : hakan-X556UQK
PID    : 21655
I/O    : uncollated
Case   : /home/hakan/courses/testSimulation/tgv2dTests/tgv2d_temporal/pimple/pimple_nu0.0000001/TGV_temporal
nProcs : 1
trapFpe: Floating point exception trapping enabled (FOAM_SIGFPE).
fileModificationChecking : Monitoring run-time modified files using timeStampMaster (fileModificationSkew 5, maxFileModificationPolls 20)
allowSystemOperations : Allowing user-supplied system call operations

// * * * * * * * * * * * * * * * * * * * * * * * * * * * * * * * * * * * * * //
Create time

Create mesh for time = 0


PIMPLE: Operating solver in PISO mode

Reading field p

Using #codeStream at line 19 in file "0/p"
Using #codeStream with "/home/hakan/courses/testSimulation/tgv2dTests/tgv2d_temporal/pimple/pimple_nu0.0000001/TGV_temporal/dynamicCode/platforms/linux64GccDPInt32Opt/lib/libcodeStream_537564b8bd232f4ddf4797bc6f60eef024868c2e.so"
Creating new library in "dynamicCode/_537564b8bd232f4ddf4797bc6f60eef024868c2e/platforms/linux64GccDPInt32Opt/lib/libcodeStream_537564b8bd232f4ddf4797bc6f60eef024868c2e.so"
Invoking wmake libso /home/hakan/courses/testSimulation/tgv2dTests/tgv2d_temporal/pimple/pimple_nu0.0000001/TGV_temporal/dynamicCode/_537564b8bd232f4ddf4797bc6f60eef024868c2e
wmake libso /home/hakan/courses/testSimulation/tgv2dTests/tgv2d_temporal/pimple/pimple_nu0.0000001/TGV_temporal/dynamicCode/_537564b8bd232f4ddf4797bc6f60eef024868c2e
    dep: codeStreamTemplate.C
    Ctoo: codeStreamTemplate.C
    link: /home/hakan/courses/testSimulation/tgv2dTests/tgv2d_temporal/pimple/pimple_nu0.0000001/TGV_temporal/dynamicCode/_537564b8bd232f4ddf4797bc6f60eef024868c2e/../platforms/linux64GccDPInt32Opt/lib/libcodeStream_537564b8bd232f4ddf4797bc6f60eef024868c2e.so
Reading field U

Using #codeStream at line 19 in file "0/U"
Using #codeStream with "/home/hakan/courses/testSimulation/tgv2dTests/tgv2d_temporal/pimple/pimple_nu0.0000001/TGV_temporal/dynamicCode/platforms/linux64GccDPInt32Opt/lib/libcodeStream_18dd48bdf5aea29696d9cbfe8eb27bc690b7dc03.so"
Creating new library in "dynamicCode/_18dd48bdf5aea29696d9cbfe8eb27bc690b7dc03/platforms/linux64GccDPInt32Opt/lib/libcodeStream_18dd48bdf5aea29696d9cbfe8eb27bc690b7dc03.so"
Invoking wmake libso /home/hakan/courses/testSimulation/tgv2dTests/tgv2d_temporal/pimple/pimple_nu0.0000001/TGV_temporal/dynamicCode/_18dd48bdf5aea29696d9cbfe8eb27bc690b7dc03
wmake libso /home/hakan/courses/testSimulation/tgv2dTests/tgv2d_temporal/pimple/pimple_nu0.0000001/TGV_temporal/dynamicCode/_18dd48bdf5aea29696d9cbfe8eb27bc690b7dc03
    dep: codeStreamTemplate.C
    Ctoo: codeStreamTemplate.C
    link: /home/hakan/courses/testSimulation/tgv2dTests/tgv2d_temporal/pimple/pimple_nu0.0000001/TGV_temporal/dynamicCode/_18dd48bdf5aea29696d9cbfe8eb27bc690b7dc03/../platforms/linux64GccDPInt32Opt/lib/libcodeStream_18dd48bdf5aea29696d9cbfe8eb27bc690b7dc03.so
Reading/calculating face flux field phi

Selecting incompressible transport model Newtonian
Selecting turbulence model type laminar
Selecting laminar stress model Stokes
No MRF models present

No finite volume options present
Courant Number mean: 0.247592318611 max: 0.305393450017
Courant Number mean: 0.247592318611 max: 0.305393450017

Starting time loop

Using dynamicCode for functionObject diff at line 51 in "/home/hakan/courses/testSimulation/tgv2dTests/tgv2d_temporal/pimple/pimple_nu0.0000001/TGV_temporal/system/controlDict/functions/diff"
Creating new library in "dynamicCode/diff/platforms/linux64GccDPInt32Opt/lib/libdiff_d924c92ec3fe0b16fec6b8892a9fc1c20fa93dd8.so"
Invoking wmake libso /home/hakan/courses/testSimulation/tgv2dTests/tgv2d_temporal/pimple/pimple_nu0.0000001/TGV_temporal/dynamicCode/diff
wmake libso /home/hakan/courses/testSimulation/tgv2dTests/tgv2d_temporal/pimple/pimple_nu0.0000001/TGV_temporal/dynamicCode/diff
    dep: functionObjectTemplate.C
    Ctoo: functionObjectTemplate.C
    link: /home/hakan/courses/testSimulation/tgv2dTests/tgv2d_temporal/pimple/pimple_nu0.0000001/TGV_temporal/dynamicCode/diff/../platforms/linux64GccDPInt32Opt/lib/libdiff_d924c92ec3fe0b16fec6b8892a9fc1c20fa93dd8.so
Courant Number mean: 0.247592318611 max: 0.305393450017
Time = 0.015

PIMPLE: iteration 1
DILUPBiCGStab:  Solving for Ux, Initial residual = 3.54696217129e-06, Final residual = 9.01627132698e-10, No Iterations 1
DILUPBiCGStab:  Solving for Uy, Initial residual = 3.54696217136e-06, Final residual = 9.01627603616e-10, No Iterations 1
DICPCG:  Solving for p, Initial residual = 0.00090411602793, Final residual = 8.51209363536e-06, No Iterations 35
time step continuity errors : sum local = 3.16758325746e-09, global = 1.11701208293e-19, cumulative = 1.11701208293e-19
DICPCG:  Solving for p, Initial residual = 1.76627747419e-05, Final residual = 1.66870648298e-07, No Iterations 75
time step continuity errors : sum local = 6.07324756646e-11, global = 2.27151495253e-20, cumulative = 1.34416357818e-19
DICPCG:  Solving for p, Initial residual = 5.63006405679e-07, Final residual = 5.12336591238e-09, No Iterations 44
time step continuity errors : sum local = 1.93208426353e-12, global = 8.14214109979e-20, cumulative = 2.15837768816e-19
DICPCG:  Solving for p, Initial residual = 3.78151723936e-08, Final residual = 9.23340954242e-13, No Iterations 123
time step continuity errors : sum local = 3.39058463314e-16, global = -1.31045900216e-19, cumulative = 8.47918686002e-20
ExecutionTime = 0.35 s  ClockTime = 26 s

    Reading error_velocity_mag (volScalarField)
    Reading error_velocity_mag_squ (volScalarField)
    Reading error_pres (volScalarField)
volFieldValue error_velocity_norm write:
    max(region0) of error_velocity_mag = 2.54897911003e-05

volFieldValue L2_error_velocity_norm write:
    sqrt(sum(region0)) of error_velocity_mag_squ = 0.00230914775949

volFieldValue error_pressure_norm write:
    max(region0) of error_pres = 0.000902579588129

Courant Number mean: 0.247592246491 max: 0.305393383081
Time = 0.03

PIMPLE: iteration 1
DILUPBiCGStab:  Solving for Ux, Initial residual = 1.41698450705e-05, Final residual = 7.60970367445e-10, No Iterations 1
DILUPBiCGStab:  Solving for Uy, Initial residual = 1.41698450831e-05, Final residual = 7.60970753735e-10, No Iterations 1
DICPCG:  Solving for p, Initial residual = 1.80999744264e-05, Final residual = 1.57957203685e-07, No Iterations 12
time step continuity errors : sum local = 3.12928445164e-11, global = 9.95637795279e-20, cumulative = 1.84355648128e-19
DICPCG:  Solving for p, Initial residual = 3.23688252758e-07, Final residual = 3.12824555319e-09, No Iterations 85
time step continuity errors : sum local = 5.6992938579e-13, global = -1.43999243324e-19, cumulative = 4.03564048036e-20
DICPCG:  Solving for p, Initial residual = 1.11041391989e-08, Final residual = 1.04333613696e-10, No Iterations 33
time step continuity errors : sum local = 1.93660702697e-14, global = -8.47606460997e-20, cumulative = -4.44042412961e-20
DICPCG:  Solving for p, Initial residual = 6.18525870009e-10, Final residual = 9.64567899628e-13, No Iterations 99
time step continuity errors : sum local = 1.78325585438e-16, global = 5.50396846385e-21, cumulative = -3.89002728323e-20
ExecutionTime = 0.69 s  ClockTime = 26 s

volFieldValue error_velocity_norm write:
    max(region0) of error_velocity_mag = 2.54897911003e-05

volFieldValue L2_error_velocity_norm write:
    sqrt(sum(region0)) of error_velocity_mag_squ = 0.00230914775949

volFieldValue error_pressure_norm write:
    max(region0) of error_pres = 0.000902579588129

Courant Number mean: 0.247592174748 max: 0.305393316497
Time = 0.045

PIMPLE: iteration 1
DILUPBiCGStab:  Solving for Ux, Initial residual = 1.4166130739e-05, Final residual = 7.62054891109e-10, No Iterations 1
DILUPBiCGStab:  Solving for Uy, Initial residual = 1.41661306921e-05, Final residual = 7.6205454828e-10, No Iterations 1
DICPCG:  Solving for p, Initial residual = 1.83637172805e-05, Final residual = 1.61356014757e-07, No Iterations 17
time step continuity errors : sum local = 3.30390221484e-11, global = 9.23864281934e-20, cumulative = 5.34861553611e-20
DICPCG:  Solving for p, Initial residual = 3.77138179574e-07, Final residual = 3.15194300391e-09, No Iterations 87
time step continuity errors : sum local = 5.73988106868e-13, global = -1.72244392544e-20, cumulative = 3.62617161067e-20
DICPCG:  Solving for p, Initial residual = 1.19163681233e-08, Final residual = 1.09202307359e-10, No Iterations 34
time step continuity errors : sum local = 2.16975815047e-14, global = -7.03603171831e-20, cumulative = -3.40986010764e-20
DICPCG:  Solving for p, Initial residual = 6.71346872645e-10, Final residual = 9.63459638408e-13, No Iterations 101
time step continuity errors : sum local = 1.7738443066e-16, global = -1.42964395468e-20, cumulative = -4.83950406232e-20
ExecutionTime = 1.04 s  ClockTime = 26 s

volFieldValue error_velocity_norm write:
    max(region0) of error_velocity_mag = 2.54897911003e-05

volFieldValue L2_error_velocity_norm write:
    sqrt(sum(region0)) of error_velocity_mag_squ = 0.00230914775949

volFieldValue error_pressure_norm write:
    max(region0) of error_pres = 0.000902579588129

Courant Number mean: 0.247591995595 max: 0.305393151344
Time = 0.06

PIMPLE: iteration 1
DILUPBiCGStab:  Solving for Ux, Initial residual = 1.41562001728e-05, Final residual = 7.62409748625e-10, No Iterations 1
DILUPBiCGStab:  Solving for Uy, Initial residual = 1.41562001157e-05, Final residual = 7.62409304649e-10, No Iterations 1
DICPCG:  Solving for p, Initial residual = 1.86612326376e-05, Final residual = 1.68620628472e-07, No Iterations 19
time step continuity errors : sum local = 3.53327052677e-11, global = -1.59612746453e-20, cumulative = -6.43563152685e-20
DICPCG:  Solving for p, Initial residual = 4.05737894459e-07, Final residual = 3.41536896145e-09, No Iterations 87
time step continuity errors : sum local = 6.21384487609e-13, global = -5.73427177436e-20, cumulative = -1.21699033012e-19
DICPCG:  Solving for p, Initial residual = 1.34288865799e-08, Final residual = 1.30540339077e-10, No Iterations 34
time step continuity errors : sum local = 2.59527473917e-14, global = -7.20271864991e-20, cumulative = -1.93726219511e-19
DICPCG:  Solving for p, Initial residual = 7.61961939995e-10, Final residual = 8.94513888513e-13, No Iterations 105
time step continuity errors : sum local = 1.65427316307e-16, global = -2.34246124811e-19, cumulative = -4.27972344322e-19
ExecutionTime = 1.39 s  ClockTime = 27 s

volFieldValue error_velocity_norm write:
    max(region0) of error_velocity_mag = 2.54897911003e-05

volFieldValue L2_error_velocity_norm write:
    sqrt(sum(region0)) of error_velocity_mag_squ = 0.00230914775949

volFieldValue error_pressure_norm write:
    max(region0) of error_pres = 0.000902579588129

Courant Number mean: 0.247591745146 max: 0.305392924439
Time = 0.075

PIMPLE: iteration 1
DILUPBiCGStab:  Solving for Ux, Initial residual = 1.41445761149e-05, Final residual = 7.65940513081e-10, No Iterations 1
DILUPBiCGStab:  Solving for Uy, Initial residual = 1.41445760614e-05, Final residual = 7.65940293896e-10, No Iterations 1
DICPCG:  Solving for p, Initial residual = 1.89839111507e-05, Final residual = 1.66594425291e-07, No Iterations 21
time step continuity errors : sum local = 3.58833573681e-11, global = 4.76174511141e-21, cumulative = -4.23210599211e-19
DICPCG:  Solving for p, Initial residual = 4.23149818935e-07, Final residual = 4.04495887553e-09, No Iterations 87
time step continuity errors : sum local = 7.35985814099e-13, global = -1.33834403072e-20, cumulative = -4.36594039518e-19
DICPCG:  Solving for p, Initial residual = 1.47228236661e-08, Final residual = 1.41378729038e-10, No Iterations 34
time step continuity errors : sum local = 2.77589677865e-14, global = -1.27345209715e-19, cumulative = -5.63939249233e-19
DICPCG:  Solving for p, Initial residual = 8.4104000689e-10, Final residual = 9.93766005137e-13, No Iterations 105
time step continuity errors : sum local = 1.82891344293e-16, global = -2.04270520554e-19, cumulative = -7.68209769787e-19
ExecutionTime = 1.74 s  ClockTime = 27 s

volFieldValue error_velocity_norm write:
    max(region0) of error_velocity_mag = 2.54897911003e-05

volFieldValue L2_error_velocity_norm write:
    sqrt(sum(region0)) of error_velocity_mag_squ = 0.00230914775949

volFieldValue error_pressure_norm write:
    max(region0) of error_pres = 0.000902579588129

Courant Number mean: 0.247591423488 max: 0.305392637199
Time = 0.09

PIMPLE: iteration 1
DILUPBiCGStab:  Solving for Ux, Initial residual = 1.41322834001e-05, Final residual = 7.76149816336e-10, No Iterations 1
DILUPBiCGStab:  Solving for Uy, Initial residual = 1.4132283448e-05, Final residual = 7.76149928701e-10, No Iterations 1
DICPCG:  Solving for p, Initial residual = 1.9324963569e-05, Final residual = 1.7983570093e-07, No Iterations 25
time step continuity errors : sum local = 3.91621920227e-11, global = -1.6017303302e-19, cumulative = -9.28382802807e-19
DICPCG:  Solving for p, Initial residual = 3.95407156145e-07, Final residual = 3.60834599212e-09, No Iterations 87
time step continuity errors : sum local = 6.55903132863e-13, global = -2.89658845703e-19, cumulative = -1.21804164851e-18
DICPCG:  Solving for p, Initial residual = 1.60665319888e-08, Final residual = 1.55402747255e-10, No Iterations 34
time step continuity errors : sum local = 3.1659089299e-14, global = -1.39551560471e-19, cumulative = -1.35759320898e-18
DICPCG:  Solving for p, Initial residual = 9.32179923853e-10, Final residual = 9.53944666156e-13, No Iterations 102
time step continuity errors : sum local = 1.76175120024e-16, global = -2.13651880002e-19, cumulative = -1.57124508898e-18
ExecutionTime = 2.1 s  ClockTime = 27 s

volFieldValue error_velocity_norm write:
    max(region0) of error_velocity_mag = 2.54897911003e-05

volFieldValue L2_error_velocity_norm write:
    sqrt(sum(region0)) of error_velocity_mag_squ = 0.00230914775949

volFieldValue error_pressure_norm write:
    max(region0) of error_pres = 0.000902579588129

Courant Number mean: 0.247591030733 max: 0.305392291396
Time = 0.105

PIMPLE: iteration 1
DILUPBiCGStab:  Solving for Ux, Initial residual = 1.41158416683e-05, Final residual = 7.86001118051e-10, No Iterations 1
DILUPBiCGStab:  Solving for Uy, Initial residual = 1.4115841706e-05, Final residual = 7.86001157219e-10, No Iterations 1
DICPCG:  Solving for p, Initial residual = 1.96806886099e-05, Final residual = 1.8217811078e-07, No Iterations 26
time step continuity errors : sum local = 4.04777734821e-11, global = -3.82851833008e-19, cumulative = -1.95409692199e-18
DICPCG:  Solving for p, Initial residual = 4.10171465332e-07, Final residual = 3.6878906298e-09, No Iterations 87
time step continuity errors : sum local = 6.71858845744e-13, global = -3.02128748124e-19, cumulative = -2.25622567012e-18
DICPCG:  Solving for p, Initial residual = 1.73365648617e-08, Final residual = 1.62294512534e-10, No Iterations 33
time step continuity errors : sum local = 3.27122005091e-14, global = -1.54933938519e-19, cumulative = -2.41115960863e-18
DICPCG:  Solving for p, Initial residual = 1.02054726667e-09, Final residual = 9.44250535319e-13, No Iterations 100
time step continuity errors : sum local = 1.74546444116e-16, global = -3.13764710941e-19, cumulative = -2.72492431958e-18
ExecutionTime = 2.45 s  ClockTime = 28 s

volFieldValue error_velocity_norm write:
    max(region0) of error_velocity_mag = 2.54897911003e-05

volFieldValue L2_error_velocity_norm write:
    sqrt(sum(region0)) of error_velocity_mag_squ = 0.00230914775949

volFieldValue error_pressure_norm write:
    max(region0) of error_pres = 0.000902579588129

Courant Number mean: 0.247590567027 max: 0.305391888654
Time = 0.12

PIMPLE: iteration 1
DILUPBiCGStab:  Solving for Ux, Initial residual = 1.40951090198e-05, Final residual = 7.95360301801e-10, No Iterations 1
DILUPBiCGStab:  Solving for Uy, Initial residual = 1.40951090453e-05, Final residual = 7.95360269896e-10, No Iterations 1
DICPCG:  Solving for p, Initial residual = 2.00432364461e-05, Final residual = 1.81753603225e-07, No Iterations 27
time step continuity errors : sum local = 4.10570205633e-11, global = -2.38264528628e-19, cumulative = -2.9631888482e-18
DICPCG:  Solving for p, Initial residual = 4.16196082968e-07, Final residual = 3.94441013104e-09, No Iterations 80
time step continuity errors : sum local = 7.19214786818e-13, global = -1.91955302881e-19, cumulative = -3.15514415109e-18
DICPCG:  Solving for p, Initial residual = 1.86971148508e-08, Final residual = 1.80910698825e-10, No Iterations 34
time step continuity errors : sum local = 3.58986601918e-14, global = -2.60385543247e-19, cumulative = -3.41552969433e-18
DICPCG:  Solving for p, Initial residual = 1.09716698136e-09, Final residual = 8.22789849339e-13, No Iterations 107
time step continuity errors : sum local = 1.5271232364e-16, global = -2.93136052493e-19, cumulative = -3.70866574683e-18
ExecutionTime = 2.81 s  ClockTime = 28 s

volFieldValue error_velocity_norm write:
    max(region0) of error_velocity_mag = 2.54897911003e-05

volFieldValue L2_error_velocity_norm write:
    sqrt(sum(region0)) of error_velocity_mag_squ = 0.00230914775949

volFieldValue error_pressure_norm write:
    max(region0) of error_pres = 0.000902579588129

Courant Number mean: 0.247590032539 max: 0.305391431671
Time = 0.135

PIMPLE: iteration 1
DILUPBiCGStab:  Solving for Ux, Initial residual = 1.40701655904e-05, Final residual = 8.04218003942e-10, No Iterations 1
DILUPBiCGStab:  Solving for Uy, Initial residual = 1.40701656042e-05, Final residual = 8.04217906722e-10, No Iterations 1
DICPCG:  Solving for p, Initial residual = 2.040687337e-05, Final residual = 1.99681882835e-07, No Iterations 27
time step continuity errors : sum local = 4.50848053343e-11, global = -1.36288236875e-19, cumulative = -3.8449539837e-18
DICPCG:  Solving for p, Initial residual = 4.40200590829e-07, Final residual = 3.90540238031e-09, No Iterations 85
time step continuity errors : sum local = 7.13089016259e-13, global = -2.52217922785e-19, cumulative = -4.09717190649e-18
DICPCG:  Solving for p, Initial residual = 2.06449333795e-08, Final residual = 2.01522750599e-10, No Iterations 33
time step continuity errors : sum local = 4.00017192746e-14, global = -2.78546573641e-19, cumulative = -4.37571848013e-18
DICPCG:  Solving for p, Initial residual = 1.20318578449e-09, Final residual = 9.38557000517e-13, No Iterations 101
time step continuity errors : sum local = 1.73653008284e-16, global = -3.07267497385e-19, cumulative = -4.68298597751e-18
ExecutionTime = 3.15 s  ClockTime = 28 s

volFieldValue error_velocity_norm write:
    max(region0) of error_velocity_mag = 2.54897911003e-05

volFieldValue L2_error_velocity_norm write:
    sqrt(sum(region0)) of error_velocity_mag_squ = 0.00230914775949

volFieldValue error_pressure_norm write:
    max(region0) of error_pres = 0.000902579588129

Courant Number mean: 0.247589427466 max: 0.305390927237
Time = 0.15

PIMPLE: iteration 1
DILUPBiCGStab:  Solving for Ux, Initial residual = 1.40411342997e-05, Final residual = 8.12598089657e-10, No Iterations 1
DILUPBiCGStab:  Solving for Uy, Initial residual = 1.40411343009e-05, Final residual = 8.12597936937e-10, No Iterations 1
DICPCG:  Solving for p, Initial residual = 2.07681900084e-05, Final residual = 2.06996300131e-07, No Iterations 39
time step continuity errors : sum local = 4.62442688767e-11, global = -3.21906163863e-19, cumulative = -5.00489214138e-18
DICPCG:  Solving for p, Initial residual = 4.92188100291e-07, Final residual = 4.8887654608e-09, No Iterations 86
time step continuity errors : sum local = 8.92026788143e-13, global = -2.58004605829e-19, cumulative = -5.2628967472e-18
DICPCG:  Solving for p, Initial residual = 2.14017353516e-08, Final residual = 2.13607370889e-10, No Iterations 35
time step continuity errors : sum local = 4.19951495771e-14, global = -2.98616577336e-19, cumulative = -5.56151332454e-18
DICPCG:  Solving for p, Initial residual = 1.22225746573e-09, Final residual = 8.14688416069e-13, No Iterations 107
time step continuity errors : sum local = 1.51374836937e-16, global = -2.81187393436e-19, cumulative = -5.84270071798e-18
ExecutionTime = 3.52 s  ClockTime = 29 s

volFieldValue error_velocity_norm write:
    max(region0) of error_velocity_mag = 2.54897911003e-05

volFieldValue L2_error_velocity_norm write:
    sqrt(sum(region0)) of error_velocity_mag_squ = 0.00230914775949

volFieldValue error_pressure_norm write:
    max(region0) of error_pres = 0.000902579588129

Courant Number mean: 0.24758875203 max: 0.305390372805
Time = 0.165

PIMPLE: iteration 1
DILUPBiCGStab:  Solving for Ux, Initial residual = 1.40088855092e-05, Final residual = 8.20533291544e-10, No Iterations 1
DILUPBiCGStab:  Solving for Uy, Initial residual = 1.40088854998e-05, Final residual = 8.20533095631e-10, No Iterations 1
DICPCG:  Solving for p, Initial residual = 2.1125242135e-05, Final residual = 1.90656934949e-07, No Iterations 72
time step continuity errors : sum local = 3.47537893044e-11, global = -4.18345049733e-19, cumulative = -6.26104576771e-18
DICPCG:  Solving for p, Initial residual = 4.87024611089e-07, Final residual = 4.02463824882e-09, No Iterations 77
time step continuity errors : sum local = 7.41237105416e-13, global = -4.30640663181e-19, cumulative = -6.69168643089e-18
DICPCG:  Solving for p, Initial residual = 1.36662197148e-08, Final residual = 1.34185557115e-10, No Iterations 36
time step continuity errors : sum local = 2.55738987509e-14, global = -7.20449509164e-20, cumulative = -6.76373138181e-18
DICPCG:  Solving for p, Initial residual = 7.85424856222e-10, Final residual = 9.73100192399e-13, No Iterations 87
time step continuity errors : sum local = 1.8018642472e-16, global = -3.27020008869e-19, cumulative = -7.09075139068e-18
ExecutionTime = 3.88 s  ClockTime = 29 s

volFieldValue error_velocity_norm write:
    max(region0) of error_velocity_mag = 2.54897911003e-05

volFieldValue L2_error_velocity_norm write:
    sqrt(sum(region0)) of error_velocity_mag_squ = 0.00230914775949

volFieldValue error_pressure_norm write:
    max(region0) of error_pres = 0.000902579588129

Courant Number mean: 0.247588006477 max: 0.305389769383
Time = 0.18

PIMPLE: iteration 1
DILUPBiCGStab:  Solving for Ux, Initial residual = 1.39754884091e-05, Final residual = 8.28070868094e-10, No Iterations 1
DILUPBiCGStab:  Solving for Uy, Initial residual = 1.39754883837e-05, Final residual = 8.28070639513e-10, No Iterations 1
DICPCG:  Solving for p, Initial residual = 2.14743839348e-05, Final residual = 2.030009373e-07, No Iterations 72
time step continuity errors : sum local = 3.70013804245e-11, global = -3.95428063397e-19, cumulative = -7.48617945407e-18
DICPCG:  Solving for p, Initial residual = 5.09097869953e-07, Final residual = 4.24390635694e-09, No Iterations 77
time step continuity errors : sum local = 7.81610856093e-13, global = -4.66838679542e-19, cumulative = -7.95301813361e-18
DICPCG:  Solving for p, Initial residual = 1.47442015639e-08, Final residual = 1.45934835876e-10, No Iterations 36
time step continuity errors : sum local = 2.78120106929e-14, global = -4.23051835506e-19, cumulative = -8.37606996912e-18
DICPCG:  Solving for p, Initial residual = 8.40072142481e-10, Final residual = 8.59428195065e-13, No Iterations 89
time step continuity errors : sum local = 1.59392042914e-16, global = -2.71538445512e-19, cumulative = -8.64760841463e-18
ExecutionTime = 4.24 s  ClockTime = 29 s

volFieldValue error_velocity_norm write:
    max(region0) of error_velocity_mag = 2.54897911003e-05

volFieldValue L2_error_velocity_norm write:
    sqrt(sum(region0)) of error_velocity_mag_squ = 0.00230914775949

volFieldValue error_pressure_norm write:
    max(region0) of error_pres = 0.000902579588129

Courant Number mean: 0.24758719107 max: 0.305389117657
Time = 0.195

PIMPLE: iteration 1
DILUPBiCGStab:  Solving for Ux, Initial residual = 1.39397693349e-05, Final residual = 8.35258761201e-10, No Iterations 1
DILUPBiCGStab:  Solving for Uy, Initial residual = 1.39397692969e-05, Final residual = 8.35258517614e-10, No Iterations 1
DICPCG:  Solving for p, Initial residual = 2.1814113779e-05, Final residual = 2.14284039675e-07, No Iterations 72
time step continuity errors : sum local = 3.90550741755e-11, global = -2.34572212182e-19, cumulative = -8.88218062682e-18
DICPCG:  Solving for p, Initial residual = 5.31830622279e-07, Final residual = 4.48948715191e-09, No Iterations 77
time step continuity errors : sum local = 8.26813540402e-13, global = -3.74814658918e-19, cumulative = -9.25699528573e-18
DICPCG:  Solving for p, Initial residual = 1.57894597973e-08, Final residual = 1.45446539148e-10, No Iterations 37
time step continuity errors : sum local = 2.78637756652e-14, global = -3.08731967159e-19, cumulative = -9.56572725289e-18
DICPCG:  Solving for p, Initial residual = 8.74612333498e-10, Final residual = 9.31087000782e-13, No Iterations 91
time step continuity errors : sum local = 1.72493869981e-16, global = -1.78890962567e-19, cumulative = -9.74461821546e-18
ExecutionTime = 4.64 s  ClockTime = 30 s

volFieldValue error_velocity_norm write:
    max(region0) of error_velocity_mag = 2.54897911003e-05

volFieldValue L2_error_velocity_norm write:
    sqrt(sum(region0)) of error_velocity_mag_squ = 0.00230914775949

volFieldValue error_pressure_norm write:
    max(region0) of error_pres = 0.000902579588129

Courant Number mean: 0.247586306098 max: 0.305388418003
Time = 0.21

PIMPLE: iteration 1
DILUPBiCGStab:  Solving for Ux, Initial residual = 1.39016156536e-05, Final residual = 8.42130901745e-10, No Iterations 1
DILUPBiCGStab:  Solving for Uy, Initial residual = 1.39016156111e-05, Final residual = 8.42130655491e-10, No Iterations 1
DICPCG:  Solving for p, Initial residual = 2.21439979082e-05, Final residual = 1.8536833892e-07, No Iterations 73
time step continuity errors : sum local = 3.3711936345e-11, global = -3.41410519841e-19, cumulative = -1.00860287353e-17
DICPCG:  Solving for p, Initial residual = 5.45202711192e-07, Final residual = 5.36817781856e-09, No Iterations 76
time step continuity errors : sum local = 9.87289167982e-13, global = -1.37595910244e-19, cumulative = -1.02236246455e-17
DICPCG:  Solving for p, Initial residual = 1.66955938585e-08, Final residual = 1.61103653497e-10, No Iterations 34
time step continuity errors : sum local = 3.05085672797e-14, global = -2.95031076014e-19, cumulative = -1.05186557216e-17
DICPCG:  Solving for p, Initial residual = 9.10760405156e-10, Final residual = 9.81702056101e-13, No Iterations 89
time step continuity errors : sum local = 1.81981517666e-16, global = -1.27013153116e-19, cumulative = -1.06456688747e-17
ExecutionTime = 5.09 s  ClockTime = 30 s

volFieldValue error_velocity_norm write:
    max(region0) of error_velocity_mag = 2.54897911003e-05

volFieldValue L2_error_velocity_norm write:
    sqrt(sum(region0)) of error_velocity_mag_squ = 0.00230914775949

volFieldValue error_pressure_norm write:
    max(region0) of error_pres = 0.000902579588129

Courant Number mean: 0.247585351862 max: 0.305387670509
Time = 0.225

PIMPLE: iteration 1
DILUPBiCGStab:  Solving for Ux, Initial residual = 1.38610838995e-05, Final residual = 8.48726236907e-10, No Iterations 1
DILUPBiCGStab:  Solving for Uy, Initial residual = 1.38610838529e-05, Final residual = 8.4872600135e-10, No Iterations 1
DICPCG:  Solving for p, Initial residual = 2.24609782507e-05, Final residual = 2.1459575386e-07, No Iterations 72
time step continuity errors : sum local = 3.91009798705e-11, global = -3.34113980589e-19, cumulative = -1.09797828553e-17
DICPCG:  Solving for p, Initial residual = 5.70726811843e-07, Final residual = 5.02823643063e-09, No Iterations 77
time step continuity errors : sum local = 9.26737000641e-13, global = -2.34466747565e-19, cumulative = -1.12142496028e-17
DICPCG:  Solving for p, Initial residual = 1.74147040613e-08, Final residual = 1.61959527511e-10, No Iterations 37
time step continuity errors : sum local = 3.11714081439e-14, global = -2.28874459076e-19, cumulative = -1.14431240619e-17
DICPCG:  Solving for p, Initial residual = 9.70086488574e-10, Final residual = 9.62299780294e-13, No Iterations 92
time step continuity errors : sum local = 1.78077988341e-16, global = -1.81192824584e-19, cumulative = -1.16243168865e-17
ExecutionTime = 5.58 s  ClockTime = 31 s

volFieldValue error_velocity_norm write:
    max(region0) of error_velocity_mag = 2.54897911003e-05

volFieldValue L2_error_velocity_norm write:
    sqrt(sum(region0)) of error_velocity_mag_squ = 0.00230914775949

volFieldValue error_pressure_norm write:
    max(region0) of error_pres = 0.000902579588129

Courant Number mean: 0.247584328684 max: 0.305386875001
Time = 0.24

PIMPLE: iteration 1
DILUPBiCGStab:  Solving for Ux, Initial residual = 1.38182616622e-05, Final residual = 8.5508501402e-10, No Iterations 1
DILUPBiCGStab:  Solving for Uy, Initial residual = 1.38182616338e-05, Final residual = 8.55084800835e-10, No Iterations 1
DICPCG:  Solving for p, Initial residual = 2.27635279608e-05, Final residual = 2.01309399272e-07, No Iterations 73
time step continuity errors : sum local = 3.66060402709e-11, global = -2.98348486989e-19, cumulative = -1.19226653735e-17
DICPCG:  Solving for p, Initial residual = 5.90636371121e-07, Final residual = 5.86314352564e-09, No Iterations 76
time step continuity errors : sum local = 1.07882857778e-12, global = -2.53802612032e-19, cumulative = -1.21764679855e-17
DICPCG:  Solving for p, Initial residual = 1.84904105439e-08, Final residual = 1.73847379181e-10, No Iterations 35
time step continuity errors : sum local = 3.33897470972e-14, global = -2.06255520142e-19, cumulative = -1.23827235057e-17
DICPCG:  Solving for p, Initial residual = 9.96988883623e-10, Final residual = 9.38315688632e-13, No Iterations 99
time step continuity errors : sum local = 1.72697785649e-16, global = -2.48066270578e-19, cumulative = -1.26307897762e-17
ExecutionTime = 5.93 s  ClockTime = 31 s

volFieldValue error_velocity_norm write:
    max(region0) of error_velocity_mag = 2.54897911003e-05

volFieldValue L2_error_velocity_norm write:
    sqrt(sum(region0)) of error_velocity_mag_squ = 0.00230914775949

volFieldValue error_pressure_norm write:
    max(region0) of error_pres = 0.000902579588129

Courant Number mean: 0.247583236898 max: 0.305386031073
Time = 0.255

PIMPLE: iteration 1
DILUPBiCGStab:  Solving for Ux, Initial residual = 1.37736848356e-05, Final residual = 8.61237570426e-10, No Iterations 1
DILUPBiCGStab:  Solving for Uy, Initial residual = 1.37736848718e-05, Final residual = 8.6123739354e-10, No Iterations 1
DICPCG:  Solving for p, Initial residual = 2.30560047546e-05, Final residual = 2.07513623022e-07, No Iterations 73
time step continuity errors : sum local = 3.77321493667e-11, global = -1.01030959983e-19, cumulative = -1.27318207362e-17
DICPCG:  Solving for p, Initial residual = 6.12418265671e-07, Final residual = 5.25389258042e-09, No Iterations 77
time step continuity errors : sum local = 9.68317799344e-13, global = -1.76163057423e-19, cumulative = -1.29079837936e-17
DICPCG:  Solving for p, Initial residual = 1.86239812446e-08, Final residual = 1.63711801181e-10, No Iterations 36
time step continuity errors : sum local = 3.13326223038e-14, global = -2.38180432633e-19, cumulative = -1.31461642263e-17
DICPCG:  Solving for p, Initial residual = 1.02159082214e-09, Final residual = 9.3249060593e-13, No Iterations 98
time step continuity errors : sum local = 1.71729167775e-16, global = -1.39560778549e-19, cumulative = -1.32857250048e-17
ExecutionTime = 6.3 s  ClockTime = 31 s

volFieldValue error_velocity_norm write:
    max(region0) of error_velocity_mag = 2.54897911003e-05

volFieldValue L2_error_velocity_norm write:
    sqrt(sum(region0)) of error_velocity_mag_squ = 0.00230914775949

volFieldValue error_pressure_norm write:
    max(region0) of error_pres = 0.000902579588129

Courant Number mean: 0.247582076853 max: 0.305385138125
Time = 0.27

PIMPLE: iteration 1
DILUPBiCGStab:  Solving for Ux, Initial residual = 1.37287292981e-05, Final residual = 8.67207447586e-10, No Iterations 1
DILUPBiCGStab:  Solving for Uy, Initial residual = 1.37287293265e-05, Final residual = 8.67207285213e-10, No Iterations 1
DICPCG:  Solving for p, Initial residual = 2.33321786074e-05, Final residual = 2.12473881541e-07, No Iterations 73
time step continuity errors : sum local = 3.8632240452e-11, global = -5.34183044579e-20, cumulative = -1.33391433093e-17
DICPCG:  Solving for p, Initial residual = 6.33189634742e-07, Final residual = 5.55915918785e-09, No Iterations 77
time step continuity errors : sum local = 1.02457155219e-12, global = -1.82286824278e-19, cumulative = -1.35214301336e-17
DICPCG:  Solving for p, Initial residual = 1.9386619302e-08, Final residual = 1.78003224654e-10, No Iterations 36
time step continuity errors : sum local = 3.42497711765e-14, global = -1.6232523039e-19, cumulative = -1.36837553639e-17
DICPCG:  Solving for p, Initial residual = 1.05652971256e-09, Final residual = 9.05386598988e-13, No Iterations 98
time step continuity errors : sum local = 1.66785548496e-16, global = -2.13861791234e-19, cumulative = -1.38976171552e-17
ExecutionTime = 6.65 s  ClockTime = 32 s

volFieldValue error_velocity_norm write:
    max(region0) of error_velocity_mag = 2.54897911003e-05

volFieldValue L2_error_velocity_norm write:
    sqrt(sum(region0)) of error_velocity_mag_squ = 0.00230914775949

volFieldValue error_pressure_norm write:
    max(region0) of error_pres = 0.000902579588129

Courant Number mean: 0.247580848912 max: 0.305384195393
Time = 0.285

PIMPLE: iteration 1
DILUPBiCGStab:  Solving for Ux, Initial residual = 1.36825470238e-05, Final residual = 8.73016995237e-10, No Iterations 1
DILUPBiCGStab:  Solving for Uy, Initial residual = 1.36825470431e-05, Final residual = 8.73016872223e-10, No Iterations 1
DICPCG:  Solving for p, Initial residual = 2.35970386425e-05, Final residual = 2.16063897375e-07, No Iterations 73
time step continuity errors : sum local = 3.92832602213e-11, global = -2.37734581156e-19, cumulative = -1.41353517363e-17
DICPCG:  Solving for p, Initial residual = 6.52295111517e-07, Final residual = 5.86990848903e-09, No Iterations 77
time step continuity errors : sum local = 1.0818392351e-12, global = -1.69333518152e-19, cumulative = -1.43046852545e-17
DICPCG:  Solving for p, Initial residual = 2.00699608525e-08, Final residual = 1.92262139078e-10, No Iterations 36
time step continuity errors : sum local = 3.71733726056e-14, global = -1.98168995684e-19, cumulative = -1.45028542502e-17
DICPCG:  Solving for p, Initial residual = 1.08675919227e-09, Final residual = 9.56583185959e-13, No Iterations 97
time step continuity errors : sum local = 1.76382622458e-16, global = -1.71087087474e-19, cumulative = -1.46739413376e-17
ExecutionTime = 7.02 s  ClockTime = 32 s

volFieldValue error_velocity_norm write:
    max(region0) of error_velocity_mag = 2.54897911003e-05

volFieldValue L2_error_velocity_norm write:
    sqrt(sum(region0)) of error_velocity_mag_squ = 0.00230914775949

volFieldValue error_pressure_norm write:
    max(region0) of error_pres = 0.000902579588129

Courant Number mean: 0.247579553445 max: 0.305383201991
Time = 0.3

PIMPLE: iteration 1
DILUPBiCGStab:  Solving for Ux, Initial residual = 1.36348300493e-05, Final residual = 8.78683145015e-10, No Iterations 1
DILUPBiCGStab:  Solving for Uy, Initial residual = 1.36348300572e-05, Final residual = 8.78683083891e-10, No Iterations 1
DICPCG:  Solving for p, Initial residual = 2.38493372649e-05, Final residual = 2.17635317898e-07, No Iterations 73
time step continuity errors : sum local = 3.95666504566e-11, global = -4.73731161769e-19, cumulative = -1.51476724994e-17
DICPCG:  Solving for p, Initial residual = 6.69447648658e-07, Final residual = 6.17474742974e-09, No Iterations 77
time step continuity errors : sum local = 1.1380600598e-12, global = -2.15491287425e-19, cumulative = -1.53631637868e-17
DICPCG:  Solving for p, Initial residual = 2.06645658665e-08, Final residual = 2.05568354585e-10, No Iterations 36
time step continuity errors : sum local = 3.99129469391e-14, global = -2.72454035257e-19, cumulative = -1.56356178221e-17
DICPCG:  Solving for p, Initial residual = 1.11073955834e-09, Final residual = 8.57999278283e-13, No Iterations 97
time step continuity errors : sum local = 1.5827396184e-16, global = -2.26934968407e-19, cumulative = -1.58625527905e-17
ExecutionTime = 7.38 s  ClockTime = 33 s

volFieldValue error_velocity_norm write:
    max(region0) of error_velocity_mag = 2.54897911003e-05

volFieldValue L2_error_velocity_norm write:
    sqrt(sum(region0)) of error_velocity_mag_squ = 0.00230914775949

volFieldValue error_pressure_norm write:
    max(region0) of error_pres = 0.000902579588129

End

