/*---------------------------------------------------------------------------*\
| =========                 |                                                 |
| \\      /  F ield         | OpenFOAM: The Open Source CFD Toolbox           |
|  \\    /   O peration     | Version:  2406                                  |
|   \\  /    A nd           | Website:  www.openfoam.com                      |
|    \\/     M anipulation  |                                                 |
\*---------------------------------------------------------------------------*/
Build  : _630d60de3b-20240620 OPENFOAM=2406 version=v2406
Arch   : "LSB;label=32;scalar=64"
Exec   : pimpleFoam
Date   : Sep 07 2024
Time   : 22:02:25
Host   : hakan-X556UQK
PID    : 19855
I/O    : uncollated
Case   : /home/hakan/courses/testSimulation/tgv2dTests/tgv2d_temporal/pimple/pimple_nu0.0000001/TGV_temporal
nProcs : 1
trapFpe: Floating point exception trapping enabled (FOAM_SIGFPE).
fileModificationChecking : Monitoring run-time modified files using timeStampMaster (fileModificationSkew 5, maxFileModificationPolls 20)
allowSystemOperations : Allowing user-supplied system call operations

// * * * * * * * * * * * * * * * * * * * * * * * * * * * * * * * * * * * * * //
Create time

Create mesh for time = 0


PIMPLE: Operating solver in PISO mode

Reading field p

Using #codeStream at line 19 in file "0/p"
Using #codeStream with "/home/hakan/courses/testSimulation/tgv2dTests/tgv2d_temporal/pimple/pimple_nu0.0000001/TGV_temporal/dynamicCode/platforms/linux64GccDPInt32Opt/lib/libcodeStream_537564b8bd232f4ddf4797bc6f60eef024868c2e.so"
Creating new library in "dynamicCode/_537564b8bd232f4ddf4797bc6f60eef024868c2e/platforms/linux64GccDPInt32Opt/lib/libcodeStream_537564b8bd232f4ddf4797bc6f60eef024868c2e.so"
Invoking wmake libso /home/hakan/courses/testSimulation/tgv2dTests/tgv2d_temporal/pimple/pimple_nu0.0000001/TGV_temporal/dynamicCode/_537564b8bd232f4ddf4797bc6f60eef024868c2e
wmake libso /home/hakan/courses/testSimulation/tgv2dTests/tgv2d_temporal/pimple/pimple_nu0.0000001/TGV_temporal/dynamicCode/_537564b8bd232f4ddf4797bc6f60eef024868c2e
    dep: codeStreamTemplate.C
    Ctoo: codeStreamTemplate.C
    link: /home/hakan/courses/testSimulation/tgv2dTests/tgv2d_temporal/pimple/pimple_nu0.0000001/TGV_temporal/dynamicCode/_537564b8bd232f4ddf4797bc6f60eef024868c2e/../platforms/linux64GccDPInt32Opt/lib/libcodeStream_537564b8bd232f4ddf4797bc6f60eef024868c2e.so
Reading field U

Using #codeStream at line 19 in file "0/U"
Using #codeStream with "/home/hakan/courses/testSimulation/tgv2dTests/tgv2d_temporal/pimple/pimple_nu0.0000001/TGV_temporal/dynamicCode/platforms/linux64GccDPInt32Opt/lib/libcodeStream_18dd48bdf5aea29696d9cbfe8eb27bc690b7dc03.so"
Creating new library in "dynamicCode/_18dd48bdf5aea29696d9cbfe8eb27bc690b7dc03/platforms/linux64GccDPInt32Opt/lib/libcodeStream_18dd48bdf5aea29696d9cbfe8eb27bc690b7dc03.so"
Invoking wmake libso /home/hakan/courses/testSimulation/tgv2dTests/tgv2d_temporal/pimple/pimple_nu0.0000001/TGV_temporal/dynamicCode/_18dd48bdf5aea29696d9cbfe8eb27bc690b7dc03
wmake libso /home/hakan/courses/testSimulation/tgv2dTests/tgv2d_temporal/pimple/pimple_nu0.0000001/TGV_temporal/dynamicCode/_18dd48bdf5aea29696d9cbfe8eb27bc690b7dc03
    dep: codeStreamTemplate.C
    Ctoo: codeStreamTemplate.C
    link: /home/hakan/courses/testSimulation/tgv2dTests/tgv2d_temporal/pimple/pimple_nu0.0000001/TGV_temporal/dynamicCode/_18dd48bdf5aea29696d9cbfe8eb27bc690b7dc03/../platforms/linux64GccDPInt32Opt/lib/libcodeStream_18dd48bdf5aea29696d9cbfe8eb27bc690b7dc03.so
Reading/calculating face flux field phi

Selecting incompressible transport model Newtonian
Selecting turbulence model type laminar
Selecting laminar stress model Stokes
No MRF models present

No finite volume options present
Courant Number mean: 0.123796159305 max: 0.152696725009
Courant Number mean: 0.123796159305 max: 0.152696725009

Starting time loop

Using dynamicCode for functionObject diff at line 51 in "/home/hakan/courses/testSimulation/tgv2dTests/tgv2d_temporal/pimple/pimple_nu0.0000001/TGV_temporal/system/controlDict/functions/diff"
Creating new library in "dynamicCode/diff/platforms/linux64GccDPInt32Opt/lib/libdiff_d924c92ec3fe0b16fec6b8892a9fc1c20fa93dd8.so"
Invoking wmake libso /home/hakan/courses/testSimulation/tgv2dTests/tgv2d_temporal/pimple/pimple_nu0.0000001/TGV_temporal/dynamicCode/diff
wmake libso /home/hakan/courses/testSimulation/tgv2dTests/tgv2d_temporal/pimple/pimple_nu0.0000001/TGV_temporal/dynamicCode/diff
    dep: functionObjectTemplate.C
    Ctoo: functionObjectTemplate.C
    link: /home/hakan/courses/testSimulation/tgv2dTests/tgv2d_temporal/pimple/pimple_nu0.0000001/TGV_temporal/dynamicCode/diff/../platforms/linux64GccDPInt32Opt/lib/libdiff_d924c92ec3fe0b16fec6b8892a9fc1c20fa93dd8.so
Courant Number mean: 0.123796159305 max: 0.152696725009
Time = 0.0075

PIMPLE: iteration 1
DILUPBiCGStab:  Solving for Ux, Initial residual = 1.77348108698e-06, Final residual = 4.08393805061e-09, No Iterations 1
DILUPBiCGStab:  Solving for Uy, Initial residual = 1.77348108701e-06, Final residual = 4.08393933626e-09, No Iterations 1
DICPCG:  Solving for p, Initial residual = 0.000903968830154, Final residual = 8.51259076456e-06, No Iterations 35
time step continuity errors : sum local = 7.9206427406e-10, global = 1.38346034054e-20, cumulative = 1.38346034054e-20
DICPCG:  Solving for p, Initial residual = 1.17511333857e-05, Final residual = 1.13206740737e-07, No Iterations 78
time step continuity errors : sum local = 1.03216972605e-11, global = 5.55209944885e-20, cumulative = 6.93555978938e-20
DICPCG:  Solving for p, Initial residual = 2.86274182914e-07, Final residual = 2.48269936239e-09, No Iterations 44
time step continuity errors : sum local = 2.25571081594e-13, global = 5.15723396513e-20, cumulative = 1.20927937545e-19
DICPCG:  Solving for p, Initial residual = 1.06008253255e-08, Final residual = 8.53538592984e-13, No Iterations 117
time step continuity errors : sum local = 7.91584751697e-17, global = 6.04376254275e-20, cumulative = 1.81365562973e-19
ExecutionTime = 0.42 s  ClockTime = 27 s

    Reading error_velocity_mag (volScalarField)
    Reading error_velocity_mag_squ (volScalarField)
    Reading error_pres (volScalarField)
volFieldValue error_velocity_norm write:
    max(region0) of error_velocity_mag = 1.27423432951e-05

volFieldValue L2_error_velocity_norm write:
    sqrt(sum(region0)) of error_velocity_mag_squ = 0.00115452210218

volFieldValue error_pressure_norm write:
    max(region0) of error_pres = 0.000902243733277

Courant Number mean: 0.123796150198 max: 0.152696716512
Time = 0.015

PIMPLE: iteration 1
DILUPBiCGStab:  Solving for Ux, Initial residual = 7.08522412889e-06, Final residual = 8.60366937346e-09, No Iterations 1
DILUPBiCGStab:  Solving for Uy, Initial residual = 7.08522413269e-06, Final residual = 8.60367145127e-09, No Iterations 1
DICPCG:  Solving for p, Initial residual = 9.10626069183e-06, Final residual = 7.43159387244e-08, No Iterations 10
time step continuity errors : sum local = 4.88533353898e-12, global = -1.40225912307e-20, cumulative = 1.67342971742e-19
DICPCG:  Solving for p, Initial residual = 2.81966000046e-07, Final residual = 2.45064402202e-09, No Iterations 74
time step continuity errors : sum local = 1.4859855323e-13, global = -5.54412503907e-21, cumulative = 1.61798846703e-19
DICPCG:  Solving for p, Initial residual = 1.27057903805e-08, Final residual = 1.12890547745e-10, No Iterations 30
time step continuity errors : sum local = 6.93952104533e-15, global = -5.34453927129e-21, cumulative = 1.56454307432e-19
DICPCG:  Solving for p, Initial residual = 7.48702364164e-10, Final residual = 9.07755545503e-13, No Iterations 87
time step continuity errors : sum local = 5.63638155492e-17, global = 2.77014900265e-21, cumulative = 1.59224456434e-19
ExecutionTime = 0.72 s  ClockTime = 28 s

volFieldValue error_velocity_norm write:
    max(region0) of error_velocity_mag = 1.27423432951e-05

volFieldValue L2_error_velocity_norm write:
    sqrt(sum(region0)) of error_velocity_mag_squ = 0.00115452210218

volFieldValue error_pressure_norm write:
    max(region0) of error_pres = 0.000902243733277

Courant Number mean: 0.123796135142 max: 0.152696702499
Time = 0.0225

PIMPLE: iteration 1
DILUPBiCGStab:  Solving for Ux, Initial residual = 7.08457353928e-06, Final residual = 8.60352188842e-09, No Iterations 1
DILUPBiCGStab:  Solving for Uy, Initial residual = 7.08457353712e-06, Final residual = 8.60352425012e-09, No Iterations 1
DICPCG:  Solving for p, Initial residual = 9.19315771876e-06, Final residual = 9.13813952495e-08, No Iterations 14
time step continuity errors : sum local = 6.04281965209e-12, global = -5.24938950118e-20, cumulative = 1.06730561422e-19
DICPCG:  Solving for p, Initial residual = 2.77513255639e-07, Final residual = 2.37273281005e-09, No Iterations 84
time step continuity errors : sum local = 1.44015709269e-13, global = 5.56785208593e-20, cumulative = 1.62409082282e-19
DICPCG:  Solving for p, Initial residual = 1.3185998765e-08, Final residual = 1.15927401097e-10, No Iterations 30
time step continuity errors : sum local = 7.16593124049e-15, global = 3.61647142082e-21, cumulative = 1.66025553703e-19
DICPCG:  Solving for p, Initial residual = 7.64149316834e-10, Final residual = 9.91512066076e-13, No Iterations 97
time step continuity errors : sum local = 6.14005679677e-17, global = -5.02643895275e-21, cumulative = 1.6099911475e-19
ExecutionTime = 1.01 s  ClockTime = 28 s

volFieldValue error_velocity_norm write:
    max(region0) of error_velocity_mag = 1.27423432951e-05

volFieldValue L2_error_velocity_norm write:
    sqrt(sum(region0)) of error_velocity_mag_squ = 0.00115452210218

volFieldValue error_pressure_norm write:
    max(region0) of error_pres = 0.000902243733277

Courant Number mean: 0.123796112157 max: 0.152696681134
Time = 0.03

PIMPLE: iteration 1
DILUPBiCGStab:  Solving for Ux, Initial residual = 7.08302700039e-06, Final residual = 8.60162588877e-09, No Iterations 1
DILUPBiCGStab:  Solving for Uy, Initial residual = 7.08302699987e-06, Final residual = 8.60162813374e-09, No Iterations 1
DICPCG:  Solving for p, Initial residual = 9.29034795049e-06, Final residual = 8.75857526653e-08, No Iterations 18
time step continuity errors : sum local = 5.96173396181e-12, global = 1.16226479031e-19, cumulative = 2.77225593781e-19
DICPCG:  Solving for p, Initial residual = 2.97728740547e-07, Final residual = 2.96375689516e-09, No Iterations 84
time step continuity errors : sum local = 1.79513992095e-13, global = 4.69361481765e-20, cumulative = 3.24161741957e-19
DICPCG:  Solving for p, Initial residual = 1.37079059725e-08, Final residual = 1.31079769802e-10, No Iterations 31
time step continuity errors : sum local = 7.96847189476e-15, global = 4.48123396217e-20, cumulative = 3.68974081579e-19
DICPCG:  Solving for p, Initial residual = 7.85825338402e-10, Final residual = 9.65358673207e-13, No Iterations 98
time step continuity errors : sum local = 5.96481603614e-17, global = 2.30196427389e-20, cumulative = 3.91993724318e-19
ExecutionTime = 1.3 s  ClockTime = 28 s

volFieldValue error_velocity_norm write:
    max(region0) of error_velocity_mag = 1.27423432951e-05

volFieldValue L2_error_velocity_norm write:
    sqrt(sum(region0)) of error_velocity_mag_squ = 0.00115452210218

volFieldValue error_pressure_norm write:
    max(region0) of error_pres = 0.000902243733277

Courant Number mean: 0.123796080585 max: 0.152696652263
Time = 0.0375

PIMPLE: iteration 1
DILUPBiCGStab:  Solving for Ux, Initial residual = 7.08057116703e-06, Final residual = 8.59787540651e-09, No Iterations 1
DILUPBiCGStab:  Solving for Uy, Initial residual = 7.0805711661e-06, Final residual = 8.59787761582e-09, No Iterations 1
DICPCG:  Solving for p, Initial residual = 9.39427480034e-06, Final residual = 8.48641946263e-08, No Iterations 20
time step continuity errors : sum local = 5.92460373183e-12, global = 1.94931956537e-20, cumulative = 4.11486919971e-19
DICPCG:  Solving for p, Initial residual = 3.02593050242e-07, Final residual = 2.39279297234e-09, No Iterations 85
time step continuity errors : sum local = 1.44970602928e-13, global = 5.4996005625e-20, cumulative = 4.66482925596e-19
DICPCG:  Solving for p, Initial residual = 1.35621160781e-08, Final residual = 1.210700019e-10, No Iterations 31
time step continuity errors : sum local = 7.44946599165e-15, global = 6.84904105789e-20, cumulative = 5.34973336175e-19
DICPCG:  Solving for p, Initial residual = 7.90569592813e-10, Final residual = 9.55672215807e-13, No Iterations 98
time step continuity errors : sum local = 5.90555795189e-17, global = 9.76758643764e-21, cumulative = 5.44740922613e-19
ExecutionTime = 1.6 s  ClockTime = 28 s

volFieldValue error_velocity_norm write:
    max(region0) of error_velocity_mag = 1.27423432951e-05

volFieldValue L2_error_velocity_norm write:
    sqrt(sum(region0)) of error_velocity_mag_squ = 0.00115452210218

volFieldValue error_pressure_norm write:
    max(region0) of error_pres = 0.000902243733277

Courant Number mean: 0.123796040209 max: 0.152696615747
Time = 0.045

PIMPLE: iteration 1
DILUPBiCGStab:  Solving for Ux, Initial residual = 7.07720570205e-06, Final residual = 8.59224609516e-09, No Iterations 1
DILUPBiCGStab:  Solving for Uy, Initial residual = 7.07720570062e-06, Final residual = 8.59224829775e-09, No Iterations 1
DICPCG:  Solving for p, Initial residual = 9.50503496105e-06, Final residual = 8.32644356571e-08, No Iterations 21
time step continuity errors : sum local = 5.94830306515e-12, global = 2.2657936419e-20, cumulative = 5.67398859032e-19
DICPCG:  Solving for p, Initial residual = 3.07005260213e-07, Final residual = 2.49382708212e-09, No Iterations 85
time step continuity errors : sum local = 1.51126054456e-13, global = 1.96253333603e-20, cumulative = 5.87024192392e-19
DICPCG:  Solving for p, Initial residual = 1.39549052133e-08, Final residual = 1.38281401396e-10, No Iterations 30
time step continuity errors : sum local = 8.44755276904e-15, global = 4.07714287256e-20, cumulative = 6.27795621118e-19
DICPCG:  Solving for p, Initial residual = 8.20349702948e-10, Final residual = 9.68282693656e-13, No Iterations 97
time step continuity errors : sum local = 5.98688099443e-17, global = 5.86471968108e-20, cumulative = 6.86442817929e-19
ExecutionTime = 1.88 s  ClockTime = 29 s

volFieldValue error_velocity_norm write:
    max(region0) of error_velocity_mag = 1.27423432951e-05

volFieldValue L2_error_velocity_norm write:
    sqrt(sum(region0)) of error_velocity_mag_squ = 0.00115452210218

volFieldValue error_pressure_norm write:
    max(region0) of error_pres = 0.000902243733277

Courant Number mean: 0.123795990961 max: 0.152696571696
Time = 0.0525

PIMPLE: iteration 1
DILUPBiCGStab:  Solving for Ux, Initial residual = 7.07293630302e-06, Final residual = 8.58474520252e-09, No Iterations 1
DILUPBiCGStab:  Solving for Uy, Initial residual = 7.07293630116e-06, Final residual = 8.58474740745e-09, No Iterations 1
DICPCG:  Solving for p, Initial residual = 9.62516956585e-06, Final residual = 9.45951141775e-08, No Iterations 24
time step continuity errors : sum local = 6.73289228722e-12, global = 2.73166516303e-20, cumulative = 7.13759469559e-19
DICPCG:  Solving for p, Initial residual = 3.03260537179e-07, Final residual = 2.2678395061e-09, No Iterations 85
time step continuity errors : sum local = 1.37511194837e-13, global = 1.06617021701e-19, cumulative = 8.2037649126e-19
DICPCG:  Solving for p, Initial residual = 1.43432621411e-08, Final residual = 1.42871175626e-10, No Iterations 25
time step continuity errors : sum local = 8.7018181575e-15, global = 5.01184399236e-20, cumulative = 8.70494931184e-19
DICPCG:  Solving for p, Initial residual = 8.34788151975e-10, Final residual = 9.4443956479e-13, No Iterations 98
time step continuity errors : sum local = 5.83482868639e-17, global = 8.74485870226e-20, cumulative = 9.57943518206e-19
ExecutionTime = 2.16 s  ClockTime = 29 s

volFieldValue error_velocity_norm write:
    max(region0) of error_velocity_mag = 1.27423432951e-05

volFieldValue L2_error_velocity_norm write:
    sqrt(sum(region0)) of error_velocity_mag_squ = 0.00115452210218

volFieldValue error_pressure_norm write:
    max(region0) of error_pres = 0.000902243733277

Courant Number mean: 0.123795932823 max: 0.152696520262
Time = 0.06

PIMPLE: iteration 1
DILUPBiCGStab:  Solving for Ux, Initial residual = 7.06791537228e-06, Final residual = 8.5860993308e-09, No Iterations 1
DILUPBiCGStab:  Solving for Uy, Initial residual = 7.0679153699e-06, Final residual = 8.58610154643e-09, No Iterations 1
DICPCG:  Solving for p, Initial residual = 9.75017272087e-06, Final residual = 8.78532006596e-08, No Iterations 25
time step continuity errors : sum local = 6.47043644197e-12, global = 5.89089731167e-20, cumulative = 1.01685249132e-18
DICPCG:  Solving for p, Initial residual = 2.94322397423e-07, Final residual = 2.9314440135e-09, No Iterations 84
time step continuity errors : sum local = 1.77465866168e-13, global = 7.4873626296e-20, cumulative = 1.09172611762e-18
DICPCG:  Solving for p, Initial residual = 1.51341527376e-08, Final residual = 1.35354020313e-10, No Iterations 31
time step continuity errors : sum local = 8.43375628798e-15, global = 1.01713189085e-19, cumulative = 1.1934393067e-18
DICPCG:  Solving for p, Initial residual = 8.56037617898e-10, Final residual = 8.96652050072e-13, No Iterations 98
time step continuity errors : sum local = 5.57307464541e-17, global = 6.54768781408e-20, cumulative = 1.25891618484e-18
ExecutionTime = 2.45 s  ClockTime = 29 s

volFieldValue error_velocity_norm write:
    max(region0) of error_velocity_mag = 1.27423432951e-05

volFieldValue L2_error_velocity_norm write:
    sqrt(sum(region0)) of error_velocity_mag_squ = 0.00115452210218

volFieldValue error_pressure_norm write:
    max(region0) of error_pres = 0.000902243733277

Courant Number mean: 0.123795865794 max: 0.152696461601
Time = 0.0675

PIMPLE: iteration 1
DILUPBiCGStab:  Solving for Ux, Initial residual = 7.06287135129e-06, Final residual = 8.6016582186e-09, No Iterations 1
DILUPBiCGStab:  Solving for Uy, Initial residual = 7.06287134968e-06, Final residual = 8.60166062609e-09, No Iterations 1
DICPCG:  Solving for p, Initial residual = 9.87819639711e-06, Final residual = 9.80679329793e-08, No Iterations 25
time step continuity errors : sum local = 7.21414933171e-12, global = 8.75743699878e-20, cumulative = 1.34649055483e-18
DICPCG:  Solving for p, Initial residual = 3.07106576437e-07, Final residual = 2.28614632664e-09, No Iterations 85
time step continuity errors : sum local = 1.38606973689e-13, global = 8.82262425145e-20, cumulative = 1.43471679735e-18
DICPCG:  Solving for p, Initial residual = 1.52859970511e-08, Final residual = 1.41906423905e-10, No Iterations 23
time step continuity errors : sum local = 8.85691319106e-15, global = 1.45094989191e-19, cumulative = 1.57981178654e-18
DICPCG:  Solving for p, Initial residual = 8.92216805792e-10, Final residual = 9.94893935548e-13, No Iterations 102
time step continuity errors : sum local = 6.15669781242e-17, global = 2.78656617963e-20, cumulative = 1.60767744833e-18
ExecutionTime = 2.79 s  ClockTime = 30 s

volFieldValue error_velocity_norm write:
    max(region0) of error_velocity_mag = 1.27423432951e-05

volFieldValue L2_error_velocity_norm write:
    sqrt(sum(region0)) of error_velocity_mag_squ = 0.00115452210218

volFieldValue error_pressure_norm write:
    max(region0) of error_pres = 0.000902243733277

Courant Number mean: 0.123795789883 max: 0.152696395869
Time = 0.075

PIMPLE: iteration 1
DILUPBiCGStab:  Solving for Ux, Initial residual = 7.05750220716e-06, Final residual = 8.62151157779e-09, No Iterations 1
DILUPBiCGStab:  Solving for Uy, Initial residual = 7.05750220842e-06, Final residual = 8.6215139926e-09, No Iterations 1
DICPCG:  Solving for p, Initial residual = 1.00081537123e-05, Final residual = 9.7991343443e-08, No Iterations 26
time step continuity errors : sum local = 7.3190223484e-12, global = 7.83862766978e-20, cumulative = 1.68606372503e-18
DICPCG:  Solving for p, Initial residual = 3.10616879785e-07, Final residual = 3.00199995996e-09, No Iterations 84
time step continuity errors : sum local = 1.82040240725e-13, global = 6.87508946092e-20, cumulative = 1.75481461964e-18
DICPCG:  Solving for p, Initial residual = 1.6343993389e-08, Final residual = 1.5835916203e-10, No Iterations 24
time step continuity errors : sum local = 9.89479080109e-15, global = 2.44609392467e-20, cumulative = 1.77927555889e-18
DICPCG:  Solving for p, Initial residual = 9.38567492447e-10, Final residual = 9.97205682281e-13, No Iterations 103
time step continuity errors : sum local = 6.16132023199e-17, global = 3.44870507886e-20, cumulative = 1.81376260968e-18
ExecutionTime = 3.08 s  ClockTime = 30 s

volFieldValue error_velocity_norm write:
    max(region0) of error_velocity_mag = 1.27423432951e-05

volFieldValue L2_error_velocity_norm write:
    sqrt(sum(region0)) of error_velocity_mag_squ = 0.00115452210218

volFieldValue error_pressure_norm write:
    max(region0) of error_pres = 0.000902243733277

Courant Number mean: 0.123795705097 max: 0.152696323264
Time = 0.0825

PIMPLE: iteration 1
DILUPBiCGStab:  Solving for Ux, Initial residual = 7.05149915941e-06, Final residual = 8.64025961063e-09, No Iterations 1
DILUPBiCGStab:  Solving for Uy, Initial residual = 7.05149915963e-06, Final residual = 8.64026203062e-09, No Iterations 1
DICPCG:  Solving for p, Initial residual = 1.01396448652e-05, Final residual = 9.9504535015e-08, No Iterations 27
time step continuity errors : sum local = 7.48829388561e-12, global = 8.28891898093e-20, cumulative = 1.89665179949e-18
DICPCG:  Solving for p, Initial residual = 3.18374785618e-07, Final residual = 3.08904838999e-09, No Iterations 84
time step continuity errors : sum local = 1.87181715516e-13, global = 1.34434284918e-19, cumulative = 2.0310860844e-18
DICPCG:  Solving for p, Initial residual = 1.67830637465e-08, Final residual = 1.56710894745e-10, No Iterations 24
time step continuity errors : sum local = 9.74323356306e-15, global = 6.5819935956e-20, cumulative = 2.09690602036e-18
DICPCG:  Solving for p, Initial residual = 9.6444492705e-10, Final residual = 9.31307011097e-13, No Iterations 104
time step continuity errors : sum local = 5.76546920486e-17, global = 1.30405022841e-19, cumulative = 2.2273110432e-18
ExecutionTime = 3.38 s  ClockTime = 30 s

volFieldValue error_velocity_norm write:
    max(region0) of error_velocity_mag = 1.27423432951e-05

volFieldValue L2_error_velocity_norm write:
    sqrt(sum(region0)) of error_velocity_mag_squ = 0.00115452210218

volFieldValue error_pressure_norm write:
    max(region0) of error_pres = 0.000902243733277

Courant Number mean: 0.12379561145 max: 0.152696244993
Time = 0.09

PIMPLE: iteration 1
DILUPBiCGStab:  Solving for Ux, Initial residual = 7.04471288614e-06, Final residual = 8.65769040424e-09, No Iterations 1
DILUPBiCGStab:  Solving for Uy, Initial residual = 7.04471288657e-06, Final residual = 8.65769282881e-09, No Iterations 1
DICPCG:  Solving for p, Initial residual = 1.02719315593e-05, Final residual = 9.74526918617e-08, No Iterations 37
time step continuity errors : sum local = 7.3291184687e-12, global = 5.73058695374e-20, cumulative = 2.28461691274e-18
DICPCG:  Solving for p, Initial residual = 3.33410427818e-07, Final residual = 3.26857139025e-09, No Iterations 84
time step continuity errors : sum local = 1.98352232269e-13, global = 2.44296749009e-20, cumulative = 2.30904658764e-18
DICPCG:  Solving for p, Initial residual = 1.71704184105e-08, Final residual = 1.59316809137e-10, No Iterations 32
time step continuity errors : sum local = 9.99744473183e-15, global = 4.34878421396e-20, cumulative = 2.35253442978e-18
DICPCG:  Solving for p, Initial residual = 9.8507093043e-10, Final residual = 8.71629435706e-13, No Iterations 100
time step continuity errors : sum local = 5.41555949833e-17, global = 3.1114324496e-20, cumulative = 2.38364875428e-18
ExecutionTime = 3.69 s  ClockTime = 30 s

volFieldValue error_velocity_norm write:
    max(region0) of error_velocity_mag = 1.27423432951e-05

volFieldValue L2_error_velocity_norm write:
    sqrt(sum(region0)) of error_velocity_mag_squ = 0.00115452210218

volFieldValue error_pressure_norm write:
    max(region0) of error_pres = 0.000902243733277

Courant Number mean: 0.123795508954 max: 0.152696160476
Time = 0.0975

PIMPLE: iteration 1
DILUPBiCGStab:  Solving for Ux, Initial residual = 7.03715439178e-06, Final residual = 8.67367056628e-09, No Iterations 1
DILUPBiCGStab:  Solving for Uy, Initial residual = 7.03715439337e-06, Final residual = 8.67367299873e-09, No Iterations 1
DICPCG:  Solving for p, Initial residual = 1.04040389695e-05, Final residual = 1.03489047353e-07, No Iterations 37
time step continuity errors : sum local = 7.78659822276e-12, global = -5.33701384866e-20, cumulative = 2.33027861579e-18
DICPCG:  Solving for p, Initial residual = 3.45548500542e-07, Final residual = 3.40162261679e-09, No Iterations 84
time step continuity errors : sum local = 2.06428247931e-13, global = -8.07949642692e-21, cumulative = 2.32219911936e-18
DICPCG:  Solving for p, Initial residual = 1.78413777316e-08, Final residual = 1.6342827415e-10, No Iterations 32
time step continuity errors : sum local = 1.02977639656e-14, global = 1.12867178936e-19, cumulative = 2.4350662983e-18
DICPCG:  Solving for p, Initial residual = 1.01722181121e-09, Final residual = 9.02902062908e-13, No Iterations 100
time step continuity errors : sum local = 5.61516513207e-17, global = -4.75896963666e-20, cumulative = 2.38747660193e-18
ExecutionTime = 3.98 s  ClockTime = 31 s

volFieldValue error_velocity_norm write:
    max(region0) of error_velocity_mag = 1.27423432951e-05

volFieldValue L2_error_velocity_norm write:
    sqrt(sum(region0)) of error_velocity_mag_squ = 0.00115452210218

volFieldValue error_pressure_norm write:
    max(region0) of error_pres = 0.000902243733277

Courant Number mean: 0.123795397623 max: 0.152696069866
Time = 0.105

PIMPLE: iteration 1
DILUPBiCGStab:  Solving for Ux, Initial residual = 7.02883576622e-06, Final residual = 8.68835064747e-09, No Iterations 1
DILUPBiCGStab:  Solving for Uy, Initial residual = 7.02883576777e-06, Final residual = 8.68835308722e-09, No Iterations 1
DICPCG:  Solving for p, Initial residual = 1.05349780672e-05, Final residual = 9.20619383275e-08, No Iterations 72
time step continuity errors : sum local = 5.59792984044e-12, global = 6.73864599812e-20, cumulative = 2.45486306191e-18
DICPCG:  Solving for p, Initial residual = 3.45767444762e-07, Final residual = 3.12987933636e-09, No Iterations 36
time step continuity errors : sum local = 2.26013671372e-13, global = -2.20083571692e-20, cumulative = 2.43285470474e-18
DICPCG:  Solving for p, Initial residual = 1.58182596716e-08, Final residual = 1.53879650267e-10, No Iterations 68
time step continuity errors : sum local = 9.3359052624e-15, global = 7.89323290969e-20, cumulative = 2.51178703384e-18
DICPCG:  Solving for p, Initial residual = 9.94054146003e-10, Final residual = 9.87386778886e-13, No Iterations 89
time step continuity errors : sum local = 6.10740943879e-17, global = -4.41589142871e-20, cumulative = 2.46762811955e-18
ExecutionTime = 4.28 s  ClockTime = 31 s

volFieldValue error_velocity_norm write:
    max(region0) of error_velocity_mag = 1.27423432951e-05

volFieldValue L2_error_velocity_norm write:
    sqrt(sum(region0)) of error_velocity_mag_squ = 0.00115452210218

volFieldValue error_pressure_norm write:
    max(region0) of error_pres = 0.000902243733277

Courant Number mean: 0.123795277473 max: 0.152695973297
Time = 0.1125

PIMPLE: iteration 1
DILUPBiCGStab:  Solving for Ux, Initial residual = 7.01976454199e-06, Final residual = 8.70153600376e-09, No Iterations 1
DILUPBiCGStab:  Solving for Uy, Initial residual = 7.01976454231e-06, Final residual = 8.70153842622e-09, No Iterations 1
DICPCG:  Solving for p, Initial residual = 1.0664297599e-05, Final residual = 9.69318862962e-08, No Iterations 72
time step continuity errors : sum local = 5.89386986145e-12, global = -3.70022008473e-20, cumulative = 2.43062591871e-18
DICPCG:  Solving for p, Initial residual = 3.57067331719e-07, Final residual = 3.19969716737e-09, No Iterations 36
time step continuity errors : sum local = 2.30440557243e-13, global = -4.66222060596e-20, cumulative = 2.38400371265e-18
DICPCG:  Solving for p, Initial residual = 1.635216699e-08, Final residual = 1.63476994719e-10, No Iterations 68
time step continuity errors : sum local = 9.91969662066e-15, global = -2.2019336624e-20, cumulative = 2.36198437602e-18
DICPCG:  Solving for p, Initial residual = 1.02317197525e-09, Final residual = 9.53630585194e-13, No Iterations 93
time step continuity errors : sum local = 5.94855979196e-17, global = -5.2492595459e-20, cumulative = 2.30949178056e-18
ExecutionTime = 4.59 s  ClockTime = 31 s

volFieldValue error_velocity_norm write:
    max(region0) of error_velocity_mag = 1.27423432951e-05

volFieldValue L2_error_velocity_norm write:
    sqrt(sum(region0)) of error_velocity_mag_squ = 0.00115452210218

volFieldValue error_pressure_norm write:
    max(region0) of error_pres = 0.000902243733277

Courant Number mean: 0.12379514852 max: 0.152695870886
Time = 0.12

PIMPLE: iteration 1
DILUPBiCGStab:  Solving for Ux, Initial residual = 7.0099650305e-06, Final residual = 8.71343907646e-09, No Iterations 1
DILUPBiCGStab:  Solving for Uy, Initial residual = 7.00996503043e-06, Final residual = 8.71344150778e-09, No Iterations 1
DICPCG:  Solving for p, Initial residual = 1.0791432905e-05, Final residual = 1.0163649562e-07, No Iterations 72
time step continuity errors : sum local = 6.17971168213e-12, global = -7.54336678583e-21, cumulative = 2.30194841378e-18
DICPCG:  Solving for p, Initial residual = 3.68877519523e-07, Final residual = 3.26252284566e-09, No Iterations 36
time step continuity errors : sum local = 2.3452391433e-13, global = 1.57121704765e-20, cumulative = 2.31766058425e-18
DICPCG:  Solving for p, Initial residual = 1.68916700995e-08, Final residual = 1.66742370349e-10, No Iterations 68
time step continuity errors : sum local = 1.012479362e-14, global = 1.5749115633e-20, cumulative = 2.33340969989e-18
DICPCG:  Solving for p, Initial residual = 1.05264976975e-09, Final residual = 8.39288617949e-13, No Iterations 100
time step continuity errors : sum local = 5.23381581456e-17, global = 7.00113186666e-21, cumulative = 2.34041083175e-18
ExecutionTime = 4.89 s  ClockTime = 32 s

volFieldValue error_velocity_norm write:
    max(region0) of error_velocity_mag = 1.27423432951e-05

volFieldValue L2_error_velocity_norm write:
    sqrt(sum(region0)) of error_velocity_mag_squ = 0.00115452210218

volFieldValue error_pressure_norm write:
    max(region0) of error_pres = 0.000902243733277

Courant Number mean: 0.123795010783 max: 0.152695762732
Time = 0.1275

PIMPLE: iteration 1
DILUPBiCGStab:  Solving for Ux, Initial residual = 6.99947003754e-06, Final residual = 8.72401934784e-09, No Iterations 1
DILUPBiCGStab:  Solving for Uy, Initial residual = 6.99947003757e-06, Final residual = 8.72402178907e-09, No Iterations 1
DICPCG:  Solving for p, Initial residual = 1.09161404434e-05, Final residual = 9.95936956893e-08, No Iterations 72
time step continuity errors : sum local = 6.0520314603e-12, global = -2.25547779543e-20, cumulative = 2.3178560538e-18
DICPCG:  Solving for p, Initial residual = 3.79800899619e-07, Final residual = 3.19727168533e-09, No Iterations 36
time step continuity errors : sum local = 2.31772224988e-13, global = -9.46946552453e-21, cumulative = 2.30838658828e-18
DICPCG:  Solving for p, Initial residual = 1.72841441e-08, Final residual = 1.69270408804e-10, No Iterations 68
time step continuity errors : sum local = 1.02811656313e-14, global = -5.76442824847e-21, cumulative = 2.30262216003e-18
DICPCG:  Solving for p, Initial residual = 1.07872255208e-09, Final residual = 9.92583187015e-13, No Iterations 100
time step continuity errors : sum local = 6.15233882105e-17, global = -1.30277278552e-19, cumulative = 2.17234488148e-18
ExecutionTime = 5.2 s  ClockTime = 32 s

volFieldValue error_velocity_norm write:
    max(region0) of error_velocity_mag = 1.27423432951e-05

volFieldValue L2_error_velocity_norm write:
    sqrt(sum(region0)) of error_velocity_mag_squ = 0.00115452210218

volFieldValue error_pressure_norm write:
    max(region0) of error_pres = 0.000902243733277

Courant Number mean: 0.12379486428 max: 0.152695648914
Time = 0.135

PIMPLE: iteration 1
DILUPBiCGStab:  Solving for Ux, Initial residual = 6.9882813664e-06, Final residual = 8.73329273578e-09, No Iterations 1
DILUPBiCGStab:  Solving for Uy, Initial residual = 6.98828136627e-06, Final residual = 8.73329518439e-09, No Iterations 1
DICPCG:  Solving for p, Initial residual = 1.10386608133e-05, Final residual = 1.09616671524e-07, No Iterations 72
time step continuity errors : sum local = 6.6645718946e-12, global = 2.88636598496e-20, cumulative = 2.20120854132e-18
DICPCG:  Solving for p, Initial residual = 3.92524596909e-07, Final residual = 3.37900788559e-09, No Iterations 36
time step continuity errors : sum local = 2.42351847197e-13, global = -8.08948288773e-20, cumulative = 2.12031371245e-18
DICPCG:  Solving for p, Initial residual = 1.80114795805e-08, Final residual = 1.57236350858e-10, No Iterations 69
time step continuity errors : sum local = 9.58716375858e-15, global = -7.82364828948e-21, cumulative = 2.11249006416e-18
DICPCG:  Solving for p, Initial residual = 1.09697967457e-09, Final residual = 9.52868904973e-13, No Iterations 100
time step continuity errors : sum local = 5.901299622e-17, global = 9.76093156087e-21, cumulative = 2.12225099572e-18
ExecutionTime = 5.51 s  ClockTime = 32 s

volFieldValue error_velocity_norm write:
    max(region0) of error_velocity_mag = 1.27423432951e-05

volFieldValue L2_error_velocity_norm write:
    sqrt(sum(region0)) of error_velocity_mag_squ = 0.00115452210218

volFieldValue error_pressure_norm write:
    max(region0) of error_pres = 0.000902243733277

Courant Number mean: 0.123794709032 max: 0.152695529493
Time = 0.1425

PIMPLE: iteration 1
DILUPBiCGStab:  Solving for Ux, Initial residual = 6.97642460865e-06, Final residual = 8.74135779646e-09, No Iterations 1
DILUPBiCGStab:  Solving for Uy, Initial residual = 6.9764246084e-06, Final residual = 8.74136025312e-09, No Iterations 1
DICPCG:  Solving for p, Initial residual = 1.11583640076e-05, Final residual = 9.52661587248e-08, No Iterations 73
time step continuity errors : sum local = 5.77919180969e-12, global = -2.02042484706e-20, cumulative = 2.10204674725e-18
DICPCG:  Solving for p, Initial residual = 3.99694266757e-07, Final residual = 3.34774576885e-09, No Iterations 36
time step continuity errors : sum local = 2.44646037267e-13, global = -7.20737266542e-20, cumulative = 2.02997302059e-18
DICPCG:  Solving for p, Initial residual = 1.83744805327e-08, Final residual = 1.6993155552e-10, No Iterations 68
time step continuity errors : sum local = 1.03267736682e-14, global = -1.31230695111e-19, cumulative = 1.89874232548e-18
DICPCG:  Solving for p, Initial residual = 1.13701567521e-09, Final residual = 9.99415388916e-13, No Iterations 100
time step continuity errors : sum local = 6.16822036779e-17, global = -4.18437238992e-20, cumulative = 1.85689860158e-18
ExecutionTime = 5.8 s  ClockTime = 33 s

volFieldValue error_velocity_norm write:
    max(region0) of error_velocity_mag = 1.27423432951e-05

volFieldValue L2_error_velocity_norm write:
    sqrt(sum(region0)) of error_velocity_mag_squ = 0.00115452210218

volFieldValue error_pressure_norm write:
    max(region0) of error_pres = 0.000902243733277

Courant Number mean: 0.123794545058 max: 0.152695404513
Time = 0.15

PIMPLE: iteration 1
DILUPBiCGStab:  Solving for Ux, Initial residual = 6.96395175998e-06, Final residual = 8.74836062843e-09, No Iterations 1
DILUPBiCGStab:  Solving for Uy, Initial residual = 6.96395175976e-06, Final residual = 8.74836309499e-09, No Iterations 1
DICPCG:  Solving for p, Initial residual = 1.12748273602e-05, Final residual = 9.80800696991e-08, No Iterations 73
time step continuity errors : sum local = 5.94977235508e-12, global = -2.33752658225e-20, cumulative = 1.83352333576e-18
DICPCG:  Solving for p, Initial residual = 4.11540648818e-07, Final residual = 3.40736273275e-09, No Iterations 36
time step continuity errors : sum local = 2.48965369845e-13, global = -5.75520285008e-20, cumulative = 1.77597130726e-18
DICPCG:  Solving for p, Initial residual = 1.8953683559e-08, Final residual = 1.74985588743e-10, No Iterations 68
time step continuity errors : sum local = 1.06337854883e-14, global = 1.50614965893e-20, cumulative = 1.79103280385e-18
DICPCG:  Solving for p, Initial residual = 1.16746536878e-09, Final residual = 8.7107693296e-13, No Iterations 101
time step continuity errors : sum local = 5.42032131184e-17, global = -4.88290200711e-20, cumulative = 1.74220378378e-18
ExecutionTime = 6.11 s  ClockTime = 33 s

volFieldValue error_velocity_norm write:
    max(region0) of error_velocity_mag = 1.27423432951e-05

volFieldValue L2_error_velocity_norm write:
    sqrt(sum(region0)) of error_velocity_mag_squ = 0.00115452210218

volFieldValue error_pressure_norm write:
    max(region0) of error_pres = 0.000902243733277

Courant Number mean: 0.12379437238 max: 0.152695274
Time = 0.1575

PIMPLE: iteration 1
DILUPBiCGStab:  Solving for Ux, Initial residual = 6.95122417201e-06, Final residual = 8.75426455813e-09, No Iterations 1
DILUPBiCGStab:  Solving for Uy, Initial residual = 6.95122417123e-06, Final residual = 8.7542670328e-09, No Iterations 1
DICPCG:  Solving for p, Initial residual = 1.13874365608e-05, Final residual = 1.11611190103e-07, No Iterations 72
time step continuity errors : sum local = 6.78406750061e-12, global = -8.92475873346e-20, cumulative = 1.65295619644e-18
DICPCG:  Solving for p, Initial residual = 4.26540063131e-07, Final residual = 3.41365586124e-09, No Iterations 36
time step continuity errors : sum local = 2.46840949418e-13, global = -6.42005624707e-20, cumulative = 1.58875563397e-18
DICPCG:  Solving for p, Initial residual = 1.95986783899e-08, Final residual = 1.92789727013e-10, No Iterations 68
time step continuity errors : sum local = 1.17126886817e-14, global = -8.2439049157e-20, cumulative = 1.50631658482e-18
DICPCG:  Solving for p, Initial residual = 1.20160795875e-09, Final residual = 9.57336731973e-13, No Iterations 102
time step continuity errors : sum local = 5.913154828e-17, global = -9.80357065208e-20, cumulative = 1.4082808783e-18
ExecutionTime = 6.42 s  ClockTime = 33 s

volFieldValue error_velocity_norm write:
    max(region0) of error_velocity_mag = 1.27423432951e-05

volFieldValue L2_error_velocity_norm write:
    sqrt(sum(region0)) of error_velocity_mag_squ = 0.00115452210218

volFieldValue error_pressure_norm write:
    max(region0) of error_pres = 0.000902243733277

Courant Number mean: 0.123794191021 max: 0.152695137964
Time = 0.165

PIMPLE: iteration 1
DILUPBiCGStab:  Solving for Ux, Initial residual = 6.9382438788e-06, Final residual = 8.75913523107e-09, No Iterations 1
DILUPBiCGStab:  Solving for Uy, Initial residual = 6.93824387756e-06, Final residual = 8.75913771446e-09, No Iterations 1
DICPCG:  Solving for p, Initial residual = 1.14966811355e-05, Final residual = 1.14495786047e-07, No Iterations 72
time step continuity errors : sum local = 6.95922788602e-12, global = -3.2848388294e-20, cumulative = 1.37543249e-18
DICPCG:  Solving for p, Initial residual = 4.39123138707e-07, Final residual = 3.46206766796e-09, No Iterations 36
time step continuity errors : sum local = 2.50438976786e-13, global = -5.02958262349e-20, cumulative = 1.32513666377e-18
DICPCG:  Solving for p, Initial residual = 2.01801320768e-08, Final residual = 1.99887263165e-10, No Iterations 68
time step continuity errors : sum local = 1.21363627486e-14, global = -3.80161225327e-22, cumulative = 1.32475650254e-18
DICPCG:  Solving for p, Initial residual = 1.23240253582e-09, Final residual = 9.63760768975e-13, No Iterations 102
time step continuity errors : sum local = 5.96045280796e-17, global = -5.97930118584e-20, cumulative = 1.26496349068e-18
ExecutionTime = 6.74 s  ClockTime = 34 s

volFieldValue error_velocity_norm write:
    max(region0) of error_velocity_mag = 1.27423432951e-05

volFieldValue L2_error_velocity_norm write:
    sqrt(sum(region0)) of error_velocity_mag_squ = 0.00115452210218

volFieldValue error_pressure_norm write:
    max(region0) of error_pres = 0.000902243733277

Courant Number mean: 0.123794001004 max: 0.1526949964
Time = 0.1725

PIMPLE: iteration 1
DILUPBiCGStab:  Solving for Ux, Initial residual = 6.92486833524e-06, Final residual = 8.76305090005e-09, No Iterations 1
DILUPBiCGStab:  Solving for Uy, Initial residual = 6.92486833442e-06, Final residual = 8.76305339484e-09, No Iterations 1
DICPCG:  Solving for p, Initial residual = 1.16025758465e-05, Final residual = 1.05472393422e-07, No Iterations 73
time step continuity errors : sum local = 6.39757485321e-12, global = -2.5345477407e-21, cumulative = 1.26242894294e-18
DICPCG:  Solving for p, Initial residual = 4.49051215991e-07, Final residual = 4.41510643134e-09, No Iterations 35
time step continuity errors : sum local = 3.11564521314e-13, global = -5.81166861668e-20, cumulative = 1.20431225678e-18
DICPCG:  Solving for p, Initial residual = 2.11988659393e-08, Final residual = 1.98483535048e-10, No Iterations 69
time step continuity errors : sum local = 1.20778971871e-14, global = 1.29479935908e-20, cumulative = 1.21726025037e-18
DICPCG:  Solving for p, Initial residual = 1.27107577042e-09, Final residual = 9.5810454051e-13, No Iterations 90
time step continuity errors : sum local = 5.92106202038e-17, global = -3.12422865543e-20, cumulative = 1.18601796381e-18
ExecutionTime = 7.06 s  ClockTime = 34 s

volFieldValue error_velocity_norm write:
    max(region0) of error_velocity_mag = 1.27423432951e-05

volFieldValue L2_error_velocity_norm write:
    sqrt(sum(region0)) of error_velocity_mag_squ = 0.00115452210218

volFieldValue error_pressure_norm write:
    max(region0) of error_pres = 0.000902243733277

Courant Number mean: 0.123793802353 max: 0.152694849287
Time = 0.18

PIMPLE: iteration 1
DILUPBiCGStab:  Solving for Ux, Initial residual = 6.91108178125e-06, Final residual = 8.76610942699e-09, No Iterations 1
DILUPBiCGStab:  Solving for Uy, Initial residual = 6.9110817802e-06, Final residual = 8.76611192998e-09, No Iterations 1
DICPCG:  Solving for p, Initial residual = 1.17052677839e-05, Final residual = 1.04920273349e-07, No Iterations 73
time step continuity errors : sum local = 6.3645999661e-12, global = -3.25242006215e-20, cumulative = 1.15349376319e-18
DICPCG:  Solving for p, Initial residual = 4.6076262335e-07, Final residual = 4.47724090339e-09, No Iterations 35
time step continuity errors : sum local = 3.16342096893e-13, global = -1.57859232006e-21, cumulative = 1.15191517087e-18
DICPCG:  Solving for p, Initial residual = 2.17817615836e-08, Final residual = 2.05457558756e-10, No Iterations 69
time step continuity errors : sum local = 1.25011092978e-14, global = -8.13201085521e-20, cumulative = 1.07059506232e-18
DICPCG:  Solving for p, Initial residual = 1.30128994316e-09, Final residual = 9.31418069941e-13, No Iterations 91
time step continuity errors : sum local = 5.77988953961e-17, global = 1.14153886155e-20, cumulative = 1.08201045093e-18
ExecutionTime = 7.39 s  ClockTime = 34 s

volFieldValue error_velocity_norm write:
    max(region0) of error_velocity_mag = 1.27423432951e-05

volFieldValue L2_error_velocity_norm write:
    sqrt(sum(region0)) of error_velocity_mag_squ = 0.00115452210218

volFieldValue error_pressure_norm write:
    max(region0) of error_pres = 0.000902243733277

Courant Number mean: 0.123793595093 max: 0.152694696592
Time = 0.1875

PIMPLE: iteration 1
DILUPBiCGStab:  Solving for Ux, Initial residual = 6.89688827881e-06, Final residual = 8.76834978421e-09, No Iterations 1
DILUPBiCGStab:  Solving for Uy, Initial residual = 6.89688827751e-06, Final residual = 8.76835229789e-09, No Iterations 1
DICPCG:  Solving for p, Initial residual = 1.18041183141e-05, Final residual = 1.10782855687e-07, No Iterations 73
time step continuity errors : sum local = 6.71897211718e-12, global = -9.1228556558e-20, cumulative = 9.90781894376e-19
DICPCG:  Solving for p, Initial residual = 4.75366556921e-07, Final residual = 4.51348937107e-09, No Iterations 35
time step continuity errors : sum local = 3.19227191471e-13, global = -5.35367175831e-20, cumulative = 9.37245176793e-19
DICPCG:  Solving for p, Initial residual = 2.2368789246e-08, Final residual = 2.1146668991e-10, No Iterations 69
time step continuity errors : sum local = 1.28669276126e-14, global = -2.82111897637e-20, cumulative = 9.09033987029e-19
DICPCG:  Solving for p, Initial residual = 1.33296758226e-09, Final residual = 9.55112535115e-13, No Iterations 92
time step continuity errors : sum local = 5.97557312389e-17, global = -9.12925334456e-20, cumulative = 8.17741453584e-19
ExecutionTime = 7.71 s  ClockTime = 35 s

volFieldValue error_velocity_norm write:
    max(region0) of error_velocity_mag = 1.27423432951e-05

volFieldValue L2_error_velocity_norm write:
    sqrt(sum(region0)) of error_velocity_mag_squ = 0.00115452210218

volFieldValue error_pressure_norm write:
    max(region0) of error_pres = 0.000902243733277

Courant Number mean: 0.12379337925 max: 0.15269453827
Time = 0.195

PIMPLE: iteration 1
DILUPBiCGStab:  Solving for Ux, Initial residual = 6.88226644566e-06, Final residual = 8.76988260702e-09, No Iterations 1
DILUPBiCGStab:  Solving for Uy, Initial residual = 6.88226644436e-06, Final residual = 8.7698851315e-09, No Iterations 1
DICPCG:  Solving for p, Initial residual = 1.18986437049e-05, Final residual = 1.12513765703e-07, No Iterations 73
time step continuity errors : sum local = 6.82376867957e-12, global = -1.45291492493e-19, cumulative = 6.72449961091e-19
DICPCG:  Solving for p, Initial residual = 4.88419382574e-07, Final residual = 4.56100581327e-09, No Iterations 35
time step continuity errors : sum local = 3.23039700324e-13, global = -5.07972715897e-20, cumulative = 6.21652689501e-19
DICPCG:  Solving for p, Initial residual = 2.2953677711e-08, Final residual = 2.05482208017e-10, No Iterations 69
time step continuity errors : sum local = 1.25064692996e-14, global = -1.70067870685e-19, cumulative = 4.51584818816e-19
DICPCG:  Solving for p, Initial residual = 1.36295014343e-09, Final residual = 9.17520978789e-13, No Iterations 99
time step continuity errors : sum local = 5.69344603348e-17, global = -6.40350042952e-20, cumulative = 3.87549814521e-19
ExecutionTime = 8.05 s  ClockTime = 35 s

volFieldValue error_velocity_norm write:
    max(region0) of error_velocity_mag = 1.27423432951e-05

volFieldValue L2_error_velocity_norm write:
    sqrt(sum(region0)) of error_velocity_mag_squ = 0.00115452210218

volFieldValue error_pressure_norm write:
    max(region0) of error_pres = 0.000902243733277

Courant Number mean: 0.123793154848 max: 0.152694374262
Time = 0.2025

PIMPLE: iteration 1
DILUPBiCGStab:  Solving for Ux, Initial residual = 6.86728381151e-06, Final residual = 8.77071127668e-09, No Iterations 1
DILUPBiCGStab:  Solving for Uy, Initial residual = 6.86728381028e-06, Final residual = 8.7707138132e-09, No Iterations 1
DICPCG:  Solving for p, Initial residual = 1.19900631322e-05, Final residual = 1.02371612674e-07, No Iterations 73
time step continuity errors : sum local = 6.21333471912e-12, global = -2.7113892769e-20, cumulative = 3.60435921752e-19
DICPCG:  Solving for p, Initial residual = 4.96640103869e-07, Final residual = 4.69211659866e-09, No Iterations 35
time step continuity errors : sum local = 3.3297074787e-13, global = -1.34323229519e-19, cumulative = 2.26112692233e-19
DICPCG:  Solving for p, Initial residual = 2.35745637067e-08, Final residual = 2.11664210676e-10, No Iterations 69
time step continuity errors : sum local = 1.28778250769e-14, global = -9.97105571301e-20, cumulative = 1.26402135103e-19
DICPCG:  Solving for p, Initial residual = 1.39413738387e-09, Final residual = 9.5771978424e-13, No Iterations 100
time step continuity errors : sum local = 5.93422321619e-17, global = -8.48746772179e-20, cumulative = 4.15274578848e-20
ExecutionTime = 8.37 s  ClockTime = 35 s

volFieldValue error_velocity_norm write:
    max(region0) of error_velocity_mag = 1.27423432951e-05

volFieldValue L2_error_velocity_norm write:
    sqrt(sum(region0)) of error_velocity_mag_squ = 0.00115452210218

volFieldValue error_pressure_norm write:
    max(region0) of error_pres = 0.000902243733277

Courant Number mean: 0.123792921916 max: 0.152694204504
Time = 0.21

PIMPLE: iteration 1
DILUPBiCGStab:  Solving for Ux, Initial residual = 6.85189968206e-06, Final residual = 8.77086813232e-09, No Iterations 1
DILUPBiCGStab:  Solving for Uy, Initial residual = 6.85189968074e-06, Final residual = 8.77087067962e-09, No Iterations 1
DICPCG:  Solving for p, Initial residual = 1.20788125707e-05, Final residual = 1.04228069489e-07, No Iterations 73
time step continuity errors : sum local = 6.32570954928e-12, global = -2.75669261508e-20, cumulative = 1.3960531734e-20
DICPCG:  Solving for p, Initial residual = 5.10236180798e-07, Final residual = 4.73389655679e-09, No Iterations 35
time step continuity errors : sum local = 3.36462126523e-13, global = -8.85401851359e-20, cumulative = -7.45796534019e-20
DICPCG:  Solving for p, Initial residual = 2.4158642617e-08, Final residual = 2.14721498202e-10, No Iterations 69
time step continuity errors : sum local = 1.30645179979e-14, global = 1.55254930959e-20, cumulative = -5.9054160306e-20
DICPCG:  Solving for p, Initial residual = 1.42539997047e-09, Final residual = 8.86537847359e-13, No Iterations 101
time step continuity errors : sum local = 5.49559407078e-17, global = -3.2473906219e-20, cumulative = -9.1528066525e-20
ExecutionTime = 8.72 s  ClockTime = 36 s

volFieldValue error_velocity_norm write:
    max(region0) of error_velocity_mag = 1.27423432951e-05

volFieldValue L2_error_velocity_norm write:
    sqrt(sum(region0)) of error_velocity_mag_squ = 0.00115452210218

volFieldValue error_pressure_norm write:
    max(region0) of error_pres = 0.000902243733277

Courant Number mean: 0.12379268048 max: 0.152694028919
Time = 0.2175

PIMPLE: iteration 1
DILUPBiCGStab:  Solving for Ux, Initial residual = 6.83613819798e-06, Final residual = 8.77039364318e-09, No Iterations 1
DILUPBiCGStab:  Solving for Uy, Initial residual = 6.8361381966e-06, Final residual = 8.77039620319e-09, No Iterations 1
DICPCG:  Solving for p, Initial residual = 1.2163865833e-05, Final residual = 1.06571461716e-07, No Iterations 73
time step continuity errors : sum local = 6.46901789879e-12, global = 4.13584287026e-21, cumulative = -8.73922236547e-20
DICPCG:  Solving for p, Initial residual = 5.23466890501e-07, Final residual = 4.80200883482e-09, No Iterations 35
time step continuity errors : sum local = 3.41896266842e-13, global = -8.81651383133e-20, cumulative = -1.75557361968e-19
DICPCG:  Solving for p, Initial residual = 2.47614399487e-08, Final residual = 2.15584447328e-10, No Iterations 69
time step continuity errors : sum local = 1.31165894257e-14, global = -1.00833300748e-19, cumulative = -2.76390662716e-19
DICPCG:  Solving for p, Initial residual = 1.45727588646e-09, Final residual = 9.27678732127e-13, No Iterations 101
time step continuity errors : sum local = 5.75080901306e-17, global = -1.83533197987e-20, cumulative = -2.94743982514e-19
ExecutionTime = 9.15 s  ClockTime = 36 s

volFieldValue error_velocity_norm write:
    max(region0) of error_velocity_mag = 1.27423432951e-05

volFieldValue L2_error_velocity_norm write:
    sqrt(sum(region0)) of error_velocity_mag_squ = 0.00115452210218

volFieldValue error_pressure_norm write:
    max(region0) of error_pres = 0.000902243733277

Courant Number mean: 0.123792430568 max: 0.152693848621
Time = 0.225

PIMPLE: iteration 1
DILUPBiCGStab:  Solving for Ux, Initial residual = 6.82002753348e-06, Final residual = 8.76932487524e-09, No Iterations 1
DILUPBiCGStab:  Solving for Uy, Initial residual = 6.8200275321e-06, Final residual = 8.76932744794e-09, No Iterations 1
DICPCG:  Solving for p, Initial residual = 1.22450553613e-05, Final residual = 1.08646437801e-07, No Iterations 73
time step continuity errors : sum local = 6.59551399157e-12, global = -2.29518454001e-20, cumulative = -3.17695827915e-19
DICPCG:  Solving for p, Initial residual = 5.36357552661e-07, Final residual = 4.85560484578e-09, No Iterations 35
time step continuity errors : sum local = 3.46336349215e-13, global = -5.4033096551e-21, cumulative = -3.2309913757e-19
DICPCG:  Solving for p, Initial residual = 2.53570147942e-08, Final residual = 2.16803100394e-10, No Iterations 69
time step continuity errors : sum local = 1.31903724071e-14, global = 3.60638681633e-20, cumulative = -2.87035269406e-19
DICPCG:  Solving for p, Initial residual = 1.48895401366e-09, Final residual = 9.56496007327e-13, No Iterations 101
time step continuity errors : sum local = 5.94315417689e-17, global = -7.68182900119e-20, cumulative = -3.63853559418e-19
ExecutionTime = 9.59 s  ClockTime = 36 s

volFieldValue error_velocity_norm write:
    max(region0) of error_velocity_mag = 1.27423432951e-05

volFieldValue L2_error_velocity_norm write:
    sqrt(sum(region0)) of error_velocity_mag_squ = 0.00115452210218

volFieldValue error_pressure_norm write:
    max(region0) of error_pres = 0.000902243733277

Courant Number mean: 0.123792172209 max: 0.152693665132
Time = 0.2325

PIMPLE: iteration 1
DILUPBiCGStab:  Solving for Ux, Initial residual = 6.8035596208e-06, Final residual = 8.76769910824e-09, No Iterations 1
DILUPBiCGStab:  Solving for Uy, Initial residual = 6.80355961935e-06, Final residual = 8.76770169404e-09, No Iterations 1
DICPCG:  Solving for p, Initial residual = 1.2322944544e-05, Final residual = 1.09637252135e-07, No Iterations 73
time step continuity errors : sum local = 6.65594354086e-12, global = -7.44776428793e-20, cumulative = -4.38331202298e-19
DICPCG:  Solving for p, Initial residual = 5.4867609225e-07, Final residual = 4.90197049821e-09, No Iterations 35
time step continuity errors : sum local = 3.50261032993e-13, global = -2.05249149059e-20, cumulative = -4.58856117203e-19
DICPCG:  Solving for p, Initial residual = 2.59453321514e-08, Final residual = 2.17992400318e-10, No Iterations 69
time step continuity errors : sum local = 1.32612379556e-14, global = -1.01456799158e-19, cumulative = -5.60312916362e-19
DICPCG:  Solving for p, Initial residual = 1.52104147982e-09, Final residual = 9.737800212e-13, No Iterations 101
time step continuity errors : sum local = 6.00791436704e-17, global = -9.71684471454e-20, cumulative = -6.57481363507e-19
ExecutionTime = 10.05 s  ClockTime = 37 s

volFieldValue error_velocity_norm write:
    max(region0) of error_velocity_mag = 1.27423432951e-05

volFieldValue L2_error_velocity_norm write:
    sqrt(sum(region0)) of error_velocity_mag_squ = 0.00115452210218

volFieldValue error_pressure_norm write:
    max(region0) of error_pres = 0.000902243733277

Courant Number mean: 0.12379190543 max: 0.152693476053
Time = 0.24

PIMPLE: iteration 1
DILUPBiCGStab:  Solving for Ux, Initial residual = 6.78675867102e-06, Final residual = 8.76554958614e-09, No Iterations 1
DILUPBiCGStab:  Solving for Uy, Initial residual = 6.78675866969e-06, Final residual = 8.76555218572e-09, No Iterations 1
DICPCG:  Solving for p, Initial residual = 1.23982958016e-05, Final residual = 1.08244257555e-07, No Iterations 73
time step continuity errors : sum local = 6.57006026648e-12, global = -4.48152887585e-20, cumulative = -7.02296652266e-19
DICPCG:  Solving for p, Initial residual = 5.6124913673e-07, Final residual = 4.92028902241e-09, No Iterations 35
time step continuity errors : sum local = 3.52069813295e-13, global = -7.42343853523e-20, cumulative = -7.76531037618e-19
DICPCG:  Solving for p, Initial residual = 2.65159736544e-08, Final residual = 2.64898726711e-10, No Iterations 68
time step continuity errors : sum local = 1.60553714565e-14, global = -5.23245202239e-20, cumulative = -8.28855557842e-19
DICPCG:  Solving for p, Initial residual = 1.57372508385e-09, Final residual = 9.38205217139e-13, No Iterations 103
time step continuity errors : sum local = 5.80594614729e-17, global = -1.70823295983e-20, cumulative = -8.4593788744e-19
ExecutionTime = 10.42 s  ClockTime = 37 s

volFieldValue error_velocity_norm write:
    max(region0) of error_velocity_mag = 1.27423432951e-05

volFieldValue L2_error_velocity_norm write:
    sqrt(sum(region0)) of error_velocity_mag_squ = 0.00115452210218

volFieldValue error_pressure_norm write:
    max(region0) of error_pres = 0.000902243733277

Courant Number mean: 0.123791630263 max: 0.152693281303
Time = 0.2475

PIMPLE: iteration 1
DILUPBiCGStab:  Solving for Ux, Initial residual = 6.76992979514e-06, Final residual = 8.76290588982e-09, No Iterations 1
DILUPBiCGStab:  Solving for Uy, Initial residual = 6.76992979395e-06, Final residual = 8.76290850258e-09, No Iterations 1
DICPCG:  Solving for p, Initial residual = 1.24698861937e-05, Final residual = 1.08776187979e-07, No Iterations 73
time step continuity errors : sum local = 6.60236107074e-12, global = -7.44181236878e-20, cumulative = -9.20356011128e-19
DICPCG:  Solving for p, Initial residual = 5.73971958337e-07, Final residual = 4.9627510244e-09, No Iterations 35
time step continuity errors : sum local = 3.55693167717e-13, global = -2.63975678995e-20, cumulative = -9.46753579028e-19
DICPCG:  Solving for p, Initial residual = 2.71019686918e-08, Final residual = 2.65752399987e-10, No Iterations 68
time step continuity errors : sum local = 1.61040825088e-14, global = -7.68956816596e-20, cumulative = -1.02364926069e-18
DICPCG:  Solving for p, Initial residual = 1.60528849713e-09, Final residual = 9.63587095736e-13, No Iterations 102
time step continuity errors : sum local = 5.97455702674e-17, global = -6.38879618164e-20, cumulative = -1.0875372225e-18
ExecutionTime = 10.8 s  ClockTime = 38 s

volFieldValue error_velocity_norm write:
    max(region0) of error_velocity_mag = 1.27423432951e-05

volFieldValue L2_error_velocity_norm write:
    sqrt(sum(region0)) of error_velocity_mag_squ = 0.00115452210218

volFieldValue error_pressure_norm write:
    max(region0) of error_pres = 0.000902243733277

Courant Number mean: 0.123791346735 max: 0.152693080793
Time = 0.255

PIMPLE: iteration 1
DILUPBiCGStab:  Solving for Ux, Initial residual = 6.75306876955e-06, Final residual = 8.75980670662e-09, No Iterations 1
DILUPBiCGStab:  Solving for Uy, Initial residual = 6.75306877026e-06, Final residual = 8.75980933406e-09, No Iterations 1
DICPCG:  Solving for p, Initial residual = 1.25393063174e-05, Final residual = 1.09529274388e-07, No Iterations 73
time step continuity errors : sum local = 6.64798479589e-12, global = 8.33110590094e-20, cumulative = -1.00422616349e-18
DICPCG:  Solving for p, Initial residual = 5.87262852442e-07, Final residual = 5.00430658044e-09, No Iterations 35
time step continuity errors : sum local = 3.59240589965e-13, global = -5.2218275026e-20, cumulative = -1.05644443852e-18
DICPCG:  Solving for p, Initial residual = 2.76874425364e-08, Final residual = 2.65805779485e-10, No Iterations 68
time step continuity errors : sum local = 1.6103135283e-14, global = -1.13029245108e-19, cumulative = -1.16947368363e-18
DICPCG:  Solving for p, Initial residual = 1.63643592653e-09, Final residual = 9.08296039846e-13, No Iterations 100
time step continuity errors : sum local = 5.66306052427e-17, global = 1.61901926353e-21, cumulative = -1.16785466437e-18
ExecutionTime = 11.19 s  ClockTime = 38 s

volFieldValue error_velocity_norm write:
    max(region0) of error_velocity_mag = 1.27423432951e-05

volFieldValue L2_error_velocity_norm write:
    sqrt(sum(region0)) of error_velocity_mag_squ = 0.00115452210218

volFieldValue error_pressure_norm write:
    max(region0) of error_pres = 0.000902243733277

Courant Number mean: 0.123791054877 max: 0.152692874432
Time = 0.2625

PIMPLE: iteration 1
DILUPBiCGStab:  Solving for Ux, Initial residual = 6.73611450799e-06, Final residual = 8.75633181605e-09, No Iterations 1
DILUPBiCGStab:  Solving for Uy, Initial residual = 6.73611450853e-06, Final residual = 8.75633445762e-09, No Iterations 1
DICPCG:  Solving for p, Initial residual = 1.26055923706e-05, Final residual = 1.11512638946e-07, No Iterations 73
time step continuity errors : sum local = 6.76985454858e-12, global = -4.47467020768e-20, cumulative = -1.21260136644e-18
DICPCG:  Solving for p, Initial residual = 5.99472662618e-07, Final residual = 5.07085775912e-09, No Iterations 35
time step continuity errors : sum local = 3.6466607739e-13, global = 7.00098835477e-21, cumulative = -1.20560037809e-18
DICPCG:  Solving for p, Initial residual = 2.82917480472e-08, Final residual = 2.63724018805e-10, No Iterations 68
time step continuity errors : sum local = 1.59643362966e-14, global = 4.09063037954e-20, cumulative = -1.16469407429e-18
DICPCG:  Solving for p, Initial residual = 1.66847593633e-09, Final residual = 9.50483144492e-13, No Iterations 94
time step continuity errors : sum local = 5.91455116471e-17, global = -2.95539829258e-20, cumulative = -1.19424805722e-18
ExecutionTime = 11.56 s  ClockTime = 38 s

volFieldValue error_velocity_norm write:
    max(region0) of error_velocity_mag = 1.27423432951e-05

volFieldValue L2_error_velocity_norm write:
    sqrt(sum(region0)) of error_velocity_mag_squ = 0.00115452210218

volFieldValue error_pressure_norm write:
    max(region0) of error_pres = 0.000902243733277

Courant Number mean: 0.12379075472 max: 0.152692662126
Time = 0.27

PIMPLE: iteration 1
DILUPBiCGStab:  Solving for Ux, Initial residual = 6.71893953285e-06, Final residual = 8.75250498457e-09, No Iterations 1
DILUPBiCGStab:  Solving for Uy, Initial residual = 6.71893953371e-06, Final residual = 8.7525076404e-09, No Iterations 1
DICPCG:  Solving for p, Initial residual = 1.2668337622e-05, Final residual = 1.11526542263e-07, No Iterations 73
time step continuity errors : sum local = 6.77082508623e-12, global = -8.14808222256e-20, cumulative = -1.27572887944e-18
DICPCG:  Solving for p, Initial residual = 6.11832223577e-07, Final residual = 5.11578949778e-09, No Iterations 35
time step continuity errors : sum local = 3.68432596346e-13, global = 5.35270764965e-21, cumulative = -1.27037617179e-18
DICPCG:  Solving for p, Initial residual = 2.88791319348e-08, Final residual = 2.64189592462e-10, No Iterations 68
time step continuity errors : sum local = 1.59857619215e-14, global = 3.47756438676e-21, cumulative = -1.26689860741e-18
DICPCG:  Solving for p, Initial residual = 1.69952858045e-09, Final residual = 9.46998511048e-13, No Iterations 92
time step continuity errors : sum local = 5.87706782694e-17, global = -6.62782120741e-20, cumulative = -1.33317681948e-18
ExecutionTime = 11.87 s  ClockTime = 39 s

volFieldValue error_velocity_norm write:
    max(region0) of error_velocity_mag = 1.27423432951e-05

volFieldValue L2_error_velocity_norm write:
    sqrt(sum(region0)) of error_velocity_mag_squ = 0.00115452210218

volFieldValue error_pressure_norm write:
    max(region0) of error_pres = 0.000902243733277

Courant Number mean: 0.123790446294 max: 0.152692443778
Time = 0.2775

PIMPLE: iteration 1
DILUPBiCGStab:  Solving for Ux, Initial residual = 6.70151198936e-06, Final residual = 8.74832404745e-09, No Iterations 1
DILUPBiCGStab:  Solving for Uy, Initial residual = 6.70151198998e-06, Final residual = 8.74832671757e-09, No Iterations 1
DICPCG:  Solving for p, Initial residual = 1.27285869347e-05, Final residual = 1.11354270463e-07, No Iterations 73
time step continuity errors : sum local = 6.76035193257e-12, global = -4.8134738014e-20, cumulative = -1.38131155749e-18
DICPCG:  Solving for p, Initial residual = 6.24327384972e-07, Final residual = 6.19985612753e-09, No Iterations 34
time step continuity errors : sum local = 4.35434684749e-13, global = -5.72124060828e-20, cumulative = -1.43852396358e-18
DICPCG:  Solving for p, Initial residual = 3.04080542165e-08, Final residual = 2.98332794764e-10, No Iterations 68
time step continuity errors : sum local = 1.80735480214e-14, global = -1.33716504817e-19, cumulative = -1.57224046839e-18
DICPCG:  Solving for p, Initial residual = 1.76752911723e-09, Final residual = 9.54248400499e-13, No Iterations 99
time step continuity errors : sum local = 5.91954372487e-17, global = -7.93008978007e-21, cumulative = -1.58017055817e-18
ExecutionTime = 12.2 s  ClockTime = 39 s

volFieldValue error_velocity_norm write:
    max(region0) of error_velocity_mag = 1.27423432951e-05

volFieldValue L2_error_velocity_norm write:
    sqrt(sum(region0)) of error_velocity_mag_squ = 0.00115452210218

volFieldValue error_pressure_norm write:
    max(region0) of error_pres = 0.000902243733277

Courant Number mean: 0.12379012963 max: 0.152692219292
Time = 0.285

PIMPLE: iteration 1
DILUPBiCGStab:  Solving for Ux, Initial residual = 6.6839364871e-06, Final residual = 8.74379103915e-09, No Iterations 1
DILUPBiCGStab:  Solving for Uy, Initial residual = 6.68393648694e-06, Final residual = 8.74379372349e-09, No Iterations 1
DICPCG:  Solving for p, Initial residual = 1.27866322083e-05, Final residual = 1.13322345224e-07, No Iterations 73
time step continuity errors : sum local = 6.87442955109e-12, global = -2.37820592472e-20, cumulative = -1.60395261742e-18
DICPCG:  Solving for p, Initial residual = 6.39105590628e-07, Final residual = 6.25027841418e-09, No Iterations 34
time step continuity errors : sum local = 4.38701661598e-13, global = -1.0749364654e-19, cumulative = -1.71144626396e-18
DICPCG:  Solving for p, Initial residual = 3.10040466504e-08, Final residual = 2.60588892815e-10, No Iterations 69
time step continuity errors : sum local = 1.58105948937e-14, global = -1.37024300935e-19, cumulative = -1.8484705649e-18
DICPCG:  Solving for p, Initial residual = 1.77143010235e-09, Final residual = 9.51369152199e-13, No Iterations 100
time step continuity errors : sum local = 5.92010382196e-17, global = -7.58990019351e-20, cumulative = -1.92436956683e-18
ExecutionTime = 12.55 s  ClockTime = 39 s

volFieldValue error_velocity_norm write:
    max(region0) of error_velocity_mag = 1.27423432951e-05

volFieldValue L2_error_velocity_norm write:
    sqrt(sum(region0)) of error_velocity_mag_squ = 0.00115452210218

volFieldValue error_pressure_norm write:
    max(region0) of error_pres = 0.000902243733277

Courant Number mean: 0.123789804761 max: 0.152691988569
Time = 0.2925

PIMPLE: iteration 1
DILUPBiCGStab:  Solving for Ux, Initial residual = 6.66611721643e-06, Final residual = 8.73892094981e-09, No Iterations 1
DILUPBiCGStab:  Solving for Uy, Initial residual = 6.66611721647e-06, Final residual = 8.73892364694e-09, No Iterations 1
DICPCG:  Solving for p, Initial residual = 1.28415411817e-05, Final residual = 1.08837094338e-07, No Iterations 73
time step continuity errors : sum local = 6.60613824321e-12, global = -5.99158376271e-20, cumulative = -1.98428540446e-18
DICPCG:  Solving for p, Initial residual = 6.49233621527e-07, Final residual = 6.29746514508e-09, No Iterations 34
time step continuity errors : sum local = 4.43087261647e-13, global = -4.57169208093e-20, cumulative = -2.03000232527e-18
DICPCG:  Solving for p, Initial residual = 3.158401818e-08, Final residual = 3.13972047544e-10, No Iterations 68
time step continuity errors : sum local = 1.90091008596e-14, global = -4.83564292785e-20, cumulative = -2.07835875455e-18
DICPCG:  Solving for p, Initial residual = 1.84157530843e-09, Final residual = 9.61118681422e-13, No Iterations 101
time step continuity errors : sum local = 5.9705107904e-17, global = 3.50891446532e-20, cumulative = -2.04326960989e-18
ExecutionTime = 12.89 s  ClockTime = 40 s

volFieldValue error_velocity_norm write:
    max(region0) of error_velocity_mag = 1.27423432951e-05

volFieldValue L2_error_velocity_norm write:
    sqrt(sum(region0)) of error_velocity_mag_squ = 0.00115452210218

volFieldValue error_pressure_norm write:
    max(region0) of error_pres = 0.000902243733277

Courant Number mean: 0.123789471717 max: 0.152691751512
Time = 0.3

PIMPLE: iteration 1
DILUPBiCGStab:  Solving for Ux, Initial residual = 6.64808341727e-06, Final residual = 8.73374010136e-09, No Iterations 1
DILUPBiCGStab:  Solving for Uy, Initial residual = 6.64808341706e-06, Final residual = 8.73374280298e-09, No Iterations 1
DICPCG:  Solving for p, Initial residual = 1.28935919996e-05, Final residual = 1.18051710917e-07, No Iterations 73
time step continuity errors : sum local = 7.15960799282e-12, global = 3.64895340243e-20, cumulative = -2.00678007587e-18
DICPCG:  Solving for p, Initial residual = 6.66911564011e-07, Final residual = 6.38464157366e-09, No Iterations 34
time step continuity errors : sum local = 4.48573271068e-13, global = -8.45340375303e-20, cumulative = -2.0913141134e-18
DICPCG:  Solving for p, Initial residual = 3.22184826364e-08, Final residual = 3.20699122684e-10, No Iterations 68
time step continuity errors : sum local = 1.94016156048e-14, global = -3.97341005877e-20, cumulative = -2.13104821399e-18
DICPCG:  Solving for p, Initial residual = 1.8796700646e-09, Final residual = 9.91308300799e-13, No Iterations 104
time step continuity errors : sum local = 6.1638904667e-17, global = 3.3187633617e-20, cumulative = -2.09786058037e-18
ExecutionTime = 13.21 s  ClockTime = 40 s

volFieldValue error_velocity_norm write:
    max(region0) of error_velocity_mag = 1.27423432951e-05

volFieldValue L2_error_velocity_norm write:
    sqrt(sum(region0)) of error_velocity_mag_squ = 0.00115452210218

volFieldValue error_pressure_norm write:
    max(region0) of error_pres = 0.000902243733277

End

